datagen/Fecamp Test Case - SSTool/matpower7.1/data/case_ACTIVSg25k.m
function mpc = case_ACTIVSg25k
%CASE_ACTIVSG25K  Synthetic US NE/Mid-Atlantic 25,000-bus power system model.
%
%   This is an entirely synthetic 25,000 bus case, geographically situated
%   in US Northeast and Mid-Atlantic regions. The case is designed with a 765,
%   500, 345, 230, 161, 138, 115, 100 and 69 kV transmission network to serve
%   a load that roughly mimics the actual population of its geographic
%   footprint. The synthetic transmission system was designed by algorithms
%   described in [1] to be statistically similar to actual transmission
%   system models but without modeling any actual lines.
%
%   When publishing results based on this data, please cite:
%
%   [1] A.B. Birchfield, T. Xu, K.M. Gegner, K.S. Shetye, T.J. Overbye,
%       "Grid Structural Characteristics as Validation Criteria for
%       Synthetic Networks," IEEE Transactions on Power Systems,
%       vol. 32, no. 4, pp. 3258-3265, July 2017.
%       doi: 10.1109/TPWRS.2016.2616385
%
%   This is a synthetic power system model that does not represent the
%   actual grid. It was developed as part of the US ARPA-E GRID DATA
%   research project and contains no CEII.
%
%   One-line diagrams and other data formats available at:
%       https://electricgrids.engr.tamu.edu
%
%   February 14, 2018

%   Created from ACTIVSg25k.pwb, saved by
%   PowerWorld Simulator, version 20, build date January 28, 2018,
%   then by MATPOWER 6.

%   MATPOWER
%   Copyright (c) 2017-2018 by A.B. Birchfield, T. Xu, K.M. Gegner, K.S. Shetye,
%   and T.J. Overbye
%   Licensed under the Creative Commons Attribution 4.0 International license,
%   https://creativecommons.org/licenses/by/4.0/

%% MATPOWER Case Format : Version 2
mpc.version = '2';

%%-----  Power Flow Data  -----%%
%% system MVA base
mpc.baseMVA = 100;

%% bus data
%	bus_i	type	Pd	Qd	Gs	Bs	area	Vm	Va	baseKV	zone	Vmax	Vmin	lam_P	lam_Q	mu_Vmax	mu_Vmin
mpc.bus = [
	11001	1	0	0	0	0	11	1.0093286	-10.64429	138	1	1.1	0.9	26.8600	0.2600	0.0000	0.0000;
	11002	1	0	0	0	0	11	1.021	-11.065497	69	1	1.1	0.9	26.8400	0.2800	0.0000	0.0000;
	11003	1	0	0	0	0	11	1.0305105	-11.40026	18	1	1.1	0.9	26.8200	0.2900	0.0000	0.0000;
	11004	1	0	0	0	0	11	1.0305105	-11.40026	1	1	1.1	0.9	26.8200	0.2900	0.0000	0.0000;
	11005	1	53.22	12.56	0	0	11	1.0090749	-10.676469	138	1	1.1	0.9	26.8600	0.2600	0.0000	0.0000;
	11006	1	0	0	0	0	11	1.0094988	-10.611985	138	1	1.1	0.9	26.8500	0.2600	0.0000	0.0000;
	11007	1	0	0	0	0	11	1.041786	-12.380243	69	1	1.1	0.9	26.4300	0.1200	0.0000	0.0000;
	11008	1	5.89	1.47	0	0	11	1.0417576	-12.383547	69	1	1.1	0.9	26.4300	0.1200	0.0000	0.0000;
	11009	1	12.29	2.77	0	0	11	1.0321049	-13.218888	69	1	1.1	0.9	26.8400	0.1400	0.0000	0.0000;
	11010	1	0	0	0	0	11	1.0321688	-13.211572	69	1	1.1	0.9	26.8300	0.1400	0.0000	0.0000;
	11011	1	0	0	0	24	11	1.0290761	-14.224554	69	1	1.1	0.9	27.5200	-0.0100	0.0000	0.0000;
	11012	1	41.52	5.16	0	0	11	1.028928	-14.248439	69	1	1.1	0.9	27.5300	-0.0000	0.0000	0.0000;
	11013	1	0	0	0	0	11	1.0289243	-14.195507	69	1	1.1	0.9	27.5200	-0.0000	0.0000	0.0000;
	11014	1	0	0	0	0	11	1.0290761	-14.224554	69	1	1.1	0.9	27.5200	-0.0100	0.0000	0.0000;
	11015	1	0	0	0	0	11	1.0290761	-14.224554	69	1	1.1	0.9	27.5200	-0.0100	0.0000	0.0000;
	11016	1	0	0	0	0	11	1.0079849	-9.763669	138	1	1.1	0.9	26.6400	0.2800	0.0000	0.0000;
	11017	1	0	0	0	0	11	1.0325083	-12.736027	69	1	1.1	0.9	26.9500	0.2000	0.0000	0.0000;
	11018	1	40.61	10.89	0	0	11	1.0077504	-9.789545	138	1	1.1	0.9	26.6500	0.2900	0.0000	0.0000;
	11019	1	0	0	0	0	11	1.0187041	-9.78556	138	1	1.1	0.9	26.5800	0.2500	0.0000	0.0000;
	11020	1	43.08	31.77	0	0	11	1.0182263	-9.80962	138	1	1.1	0.9	26.5800	0.2500	0.0000	0.0000;
	11021	1	0	0	0	26	11	1.0327735	-14.338199	69	1	1.1	0.9	27.4600	-0.0200	0.0000	0.0000;
	11022	1	32.58	13.35	0	0	11	1.0325367	-14.355813	69	1	1.1	0.9	27.4600	-0.0200	0.0000	0.0000;
	11023	1	32.58	11.05	0	0	11	1.0208186	-13.279804	69	1	1.1	0.9	27.4100	0.1500	0.0000	0.0000;
	11024	1	0	0	0	0	11	1.0279093	-13.595502	69	1	1.1	0.9	27.2400	0.1900	0.0000	0.0000;
	11025	1	0	0	0	0	11	1.028069	-13.570138	69	1	1.1	0.9	27.2400	0.1900	0.0000	0.0000;
	11026	1	42.62	6.8	0	0	11	1.0277348	-13.621917	69	1	1.1	0.9	27.2500	0.1900	0.0000	0.0000;
	11027	1	0	0	0	0	11	1.0193596	-9.594402	138	1	1.1	0.9	26.6200	0.2000	0.0000	0.0000;
	11028	1	0	0	0	0	11	1.0358851	-13.749288	69	1	1.1	0.9	27.1600	0.0600	0.0000	0.0000;
	11029	1	50.01	8.36	0	0	11	1.0191269	-9.622411	138	1	1.1	0.9	26.6300	0.2000	0.0000	0.0000;
	11030	1	0	0	0	0	11	1.0338368	-7.831472	345	1	1.1	0.9	26.3900	0.1200	0.0000	0.0000;
	11031	1	58.73	8.55	0	0	11	1.0248497	-9.819382	138	1	1.1	0.9	26.5600	0.1600	0.0000	0.0000;
	11032	1	0	0	0	0	11	1.0190151	-11.309048	24	1	1.1	0.9	26.6900	0.1700	0.0000	0.0000;
	11033	1	0	0	0	0	11	1.0190151	-11.309048	1	1	1.1	0.9	26.6900	0.1700	0.0000	0.0000;
	11034	1	0	0	0	0	11	1.0345364	-7.751599	345	1	1.1	0.9	26.3600	0.1200	0.0000	0.0000;
	11035	1	0	0	0	0	11	1.0338368	-7.831472	345	1	1.1	0.9	26.3900	0.1200	0.0000	0.0000;
	11036	1	22.83	4.5	0	40	11	1.0297764	-13.924803	69	1	1.1	0.9	27.5500	-0.1000	0.0000	0.0000;
	11037	1	0	0	0	40	11	1.0335145	-15.32318	69	1	1.1	0.9	27.7100	-0.1700	0.0000	0.0000;
	11038	1	37.56	16.05	0	0	11	1.0332637	-15.344291	69	1	1.1	0.9	27.7200	-0.1700	0.0000	0.0000;
	11039	1	48.46	5.17	0	0	11	1.0178119	-8.814059	138	1	1.1	0.9	26.5300	0.2100	0.0000	0.0000;
	11040	1	23.05	5.37	0	0	11	1.033529	-14.409894	69	1	1.1	0.9	27.2300	0.0900	0.0000	0.0000;
	11041	1	0	0	0	0	11	1.0188871	-12.658317	69	1	1.1	0.9	27.2400	0.2600	0.0000	0.0000;
	11042	1	29.46	2.65	0	0	11	1.0187891	-12.675247	69	1	1.1	0.9	27.2400	0.2600	0.0000	0.0000;
	11043	1	0.37	0.08	0	0	11	1.0039923	-13.380482	69	1	1.1	0.9	27.4900	0.4700	0.0000	0.0000;
	11044	1	0	0	0	0	11	1.0040642	-13.371028	69	1	1.1	0.9	27.4900	0.4700	0.0000	0.0000;
	11045	1	14.7	3.14	0	0	11	1.0039268	-13.389123	69	1	1.1	0.9	27.4900	0.4700	0.0000	0.0000;
	11046	1	0	0	0	0	11	1.0039923	-13.380482	69	1	1.1	0.9	27.4900	0.4700	0.0000	0.0000;
	11047	1	0	0	0	0	11	1.0372164	-12.741229	138	1	1.1	0.9	26.6300	0.1500	0.0000	0.0000;
	11048	1	58.78	13.1	0	0	11	1.0433782	-13.745594	69	1	1.1	0.9	26.6700	0.1400	0.0000	0.0000;
	11049	1	0	0	0	0	11	1.0373942	-12.737461	138	1	1.1	0.9	26.6300	0.1400	0.0000	0.0000;
	11050	1	0	0	0	0	11	1.0385034	-13.61601	69	1	1.1	0.9	26.7200	0.2100	0.0000	0.0000;
	11051	1	50.26	13.62	0	0	11	1.0382306	-13.642724	69	1	1.1	0.9	26.7200	0.2100	0.0000	0.0000;
	11052	1	39.39	5.71	0	0	11	1.0130115	-10.592939	138	1	1.1	0.9	26.7800	0.2300	0.0000	0.0000;
	11053	1	0	0	0	0	11	1.0063804	-10.574038	138	1	1.1	0.9	26.8000	0.2800	0.0000	0.0000;
	11054	1	0	0	0	0	11	1.0218803	-12.419252	69	1	1.1	0.9	27.1100	0.2500	0.0000	0.0000;
	11055	1	39.17	19.43	0	0	11	1.0060898	-10.5941	138	1	1.1	0.9	26.8000	0.2800	0.0000	0.0000;
	11056	1	10.85	1.44	0	0	11	1.0070031	-14.293627	69	1	1.1	0.9	27.6500	0.3800	0.0000	0.0000;
	11057	1	0	0	0	21	11	1.0256456	-13.93634	69	1	1.1	0.9	27.6400	-0.1100	0.0000	0.0000;
	11058	1	20.99	2.31	0	0	11	1.0255791	-13.948319	69	1	1.1	0.9	27.6500	-0.1100	0.0000	0.0000;
	11059	1	0	0	0	0	11	1.0254721	-13.919817	69	1	1.1	0.9	27.6400	-0.1100	0.0000	0.0000;
	11060	1	0	0	0	0	11	1.0256456	-13.93634	69	1	1.1	0.9	27.6400	-0.1100	0.0000	0.0000;
	11061	1	0	0	0	0	11	1.0309561	-4.042278	345	1	1.1	0.9	25.9100	0.1200	0.0000	0.0000;
	11062	1	0	0	0	0	11	1.0280604	-6.389789	138	1	1.1	0.9	26.0100	0.1800	0.0000	0.0000;
	11063	1	0	0	0	0	11	1.0228045	-9.608123	69	1	1.1	0.9	26.2100	0.3700	0.0000	0.0000;
	11064	1	54.54	14.88	0	0	11	1.0306505	-4.074937	345	1	1.1	0.9	25.9200	0.1200	0.0000	0.0000;
	11065	1	0	0	0	0	11	1.0277983	-6.454953	138	1	1.1	0.9	26.0300	0.1800	0.0000	0.0000;
	11066	1	0	0	0	0	11	1.0201692	-12.749843	69	1	1.1	0.9	27.2500	0.2200	0.0000	0.0000;
	11067	1	26.38	11.13	0	0	11	1.0199875	-12.764822	69	1	1.1	0.9	27.2600	0.2200	0.0000	0.0000;
	11068	1	33.91	10.1	0	0	11	1.018919	-12.598819	69	1	1.1	0.9	27.1800	0.3300	0.0000	0.0000;
	11069	1	0	0	0	0	11	1.0191316	-12.578639	69	1	1.1	0.9	27.1700	0.3300	0.0000	0.0000;
	11070	1	0	0	0	0	11	1.006399	-14.56706	69	1	1.1	0.9	27.7000	0.3900	0.0000	0.0000;
	11071	1	11.72	3.73	0	0	11	1.0063351	-14.573428	69	1	1.1	0.9	27.7000	0.3900	0.0000	0.0000;
	11072	1	17.96	1.61	0	0	11	1.0151965	-11.139024	69	1	1.1	0.9	26.8900	0.4100	0.0000	0.0000;
	11073	1	0	0	0	0	11	1.0152606	-11.127978	69	1	1.1	0.9	26.8800	0.4100	0.0000	0.0000;
	11074	1	0	0	0	0	11	1.0235617	-13.505709	138	1	1.1	0.9	26.9100	0.1900	0.0000	0.0000;
	11075	1	56.63	20.34	0	0	11	1.0231798	-13.538473	138	1	1.1	0.9	26.9200	0.1900	0.0000	0.0000;
	11076	1	0	0	0	0	11	1.0196018	-12.330658	69	1	1.1	0.9	27.1700	0.2500	0.0000	0.0000;
	11077	1	18.77	2.83	0	0	11	1.0195316	-12.341673	69	1	1.1	0.9	27.1700	0.2500	0.0000	0.0000;
	11078	1	0	0	0	0	11	1.0076138	-9.17367	138	1	1.1	0.9	26.7000	0.3000	0.0000	0.0000;
	11079	1	0	0	0	0	11	1.0299855	-10.428734	69	1	1.1	0.9	26.6700	0.2700	0.0000	0.0000;
	11080	1	46.81	12.6	0	0	11	1.007381	-9.199459	138	1	1.1	0.9	26.7000	0.3100	0.0000	0.0000;
	11081	1	0	0	0	0	11	1.0080251	-9.140952	138	1	1.1	0.9	26.6900	0.3000	0.0000	0.0000;
	11082	1	0	0	0	0	11	1.0231339	-9.418213	69	1	1.1	0.9	26.4000	0.3800	0.0000	0.0000;
	11083	1	27.43	4.42	0	0	11	1.0230268	-9.434535	69	1	1.1	0.9	26.4000	0.3800	0.0000	0.0000;
	11084	1	44.74	17.52	0	0	11	1.0109697	-10.205343	69	1	1.1	0.9	26.6900	0.5100	0.0000	0.0000;
	11085	1	0	0	0	0	11	1.0284578	-5.250251	138	1	1.1	0.9	25.9400	0.1900	0.0000	0.0000;
	11086	1	44.74	17.31	0	0	11	1.0203702	-9.359944	69	1	1.1	0.9	26.3200	0.4200	0.0000	0.0000;
	11087	1	0	0	0	0	11	1.0251874	-6.60801	13.8	1	1.1	0.9	26.0600	0.2700	0.0000	0.0000;
	11088	1	0	0	0	0	11	1.0251874	-6.60801	1	1	1.1	0.9	26.0600	0.2700	0.0000	0.0000;
	11089	1	0	0	0	0	11	1.0286494	-5.221032	138	1	1.1	0.9	25.9400	0.1900	0.0000	0.0000;
	11090	1	44.83	11.68	0	0	11	1.0145498	-9.840847	69	1	1.1	0.9	26.5500	0.4700	0.0000	0.0000;
	11091	1	0	0	0	422	11	1.0347752	-2.049822	345	1	1.1	0.9	25.7100	0.1100	0.0000	0.0000;
	11092	1	0	0	0	0	11	1.0367815	-4.824996	138	1	1.1	0.9	25.8000	0.1500	0.0000	0.0000;
	11093	1	0	0	0	0	11	1.035699	-8.591163	69	1	1.1	0.9	25.9800	0.2400	0.0000	0.0000;
	11094	1	51.91	27.85	0	0	11	1.036371	-4.851741	138	1	1.1	0.9	25.8000	0.1600	0.0000	0.0000;
	11095	1	36.04	7.74	0	0	11	1.0202187	-9.491759	69	1	1.1	0.9	26.4300	0.4200	0.0000	0.0000;
	11096	1	36.04	2.7	0	0	11	1.0190644	-9.218836	69	1	1.1	0.9	26.5200	0.3500	0.0000	0.0000;
	11097	1	37.44	21.43	0	0	11	1.0213898	-9.153647	69	1	1.1	0.9	26.3200	0.4100	0.0000	0.0000;
	11098	1	0	0	0	0	11	1.0236973	-9.140788	69	1	1.1	0.9	26.2600	0.3800	0.0000	0.0000;
	11099	1	37.44	14.45	0	0	11	1.0234304	-9.162858	69	1	1.1	0.9	26.2700	0.3800	0.0000	0.0000;
	11100	1	45.7	13.49	0	0	11	1.0199732	-10.342084	69	1	1.1	0.9	26.6300	0.3800	0.0000	0.0000;
	11101	1	0	0	0	0	11	1.0335897	-5.306703	138	1	1.1	0.9	25.8800	0.1800	0.0000	0.0000;
	11102	1	45.7	10.14	0	0	11	1.0333812	-5.330745	138	1	1.1	0.9	25.8900	0.1800	0.0000	0.0000;
	11103	1	0	0	0	0	11	1.0263122	-4.610861	138	1	1.1	0.9	25.8400	0.2000	0.0000	0.0000;
	11104	1	0	0	0	0	11	1.0314159	-8.192753	69	1	1.1	0.9	25.9400	0.2900	0.0000	0.0000;
	11105	1	33.39	7.73	0	0	11	1.0261433	-4.629373	138	1	1.1	0.9	25.8400	0.2000	0.0000	0.0000;
	11106	1	0	0	0	0	11	1.0267957	-4.573415	138	1	1.1	0.9	25.8300	0.2000	0.0000	0.0000;
	11107	1	6.07	1.26	0	0	11	1.0262811	-4.614596	138	1	1.1	0.9	25.8400	0.2000	0.0000	0.0000;
	11108	1	33.39	11.4	0	0	11	1.0199745	-9.431356	69	1	1.1	0.9	26.4200	0.4200	0.0000	0.0000;
	11109	1	33.63	5.14	0	0	11	1.0188459	-3.554738	138	1	1.1	0.9	25.9100	0.1600	0.0000	0.0000;
	11110	1	0	0	0	0	11	1.0246804	-2.890366	138	1	1.1	0.9	25.6900	0.1800	0.0000	0.0000;
	11111	1	50.83	18.1	0	0	11	1.0329731	-5.510303	69	1	1.1	0.9	25.7600	0.1800	0.0000	0.0000;
	11112	1	0	0	0	0	11	1.0252512	-2.841572	138	1	1.1	0.9	25.6800	0.1800	0.0000	0.0000;
	11113	1	0	0	0	0	11	1.0236683	-3.426879	138	1	1.1	0.9	25.7500	0.1800	0.0000	0.0000;
	11114	1	0	0	0	0	11	1.0311137	-4.797399	69	1	1.1	0.9	25.6100	0.1700	0.0000	0.0000;
	11115	1	50.83	4.52	0	0	11	1.0235129	-3.454248	138	1	1.1	0.9	25.7600	0.1800	0.0000	0.0000;
	11116	1	0	0	0	0	11	1.0239437	-3.389808	138	1	1.1	0.9	25.7400	0.1800	0.0000	0.0000;
	11117	1	37.99	16.3	0	0	11	1.0244595	-1.620086	138	1	1.1	0.9	25.4300	0.1800	0.0000	0.0000;
	11118	1	0	0	0	0	11	1.0274927	-0.916211	138	1	1.1	0.9	25.4000	0.1100	0.0000	0.0000;
	11119	1	45.91	30.33	0	0	11	1.0270619	-0.93655	138	1	1.1	0.9	25.4000	0.1100	0.0000	0.0000;
	11120	1	35.8	10.43	0	0	11	1.0050692	-6.244818	69	1	1.1	0.9	26.1000	0.3600	0.0000	0.0000;
	11121	1	0	0	0	0	11	1.0211013	-4.102212	69	1	1.1	0.9	25.4600	0.2800	0.0000	0.0000;
	11122	1	32.15	4.57	0	0	11	1.0209874	-4.121301	69	1	1.1	0.9	25.4600	0.2800	0.0000	0.0000;
	11123	1	0	0	0	0	11	1.0212323	-4.081889	69	1	1.1	0.9	25.4600	0.2800	0.0000	0.0000;
	11124	1	0	0	0	0	11	1.0288924	-5.859135	69	1	1.1	0.9	25.8800	0.2000	0.0000	0.0000;
	11125	1	47.75	8.66	0	0	11	1.0286899	-5.887549	69	1	1.1	0.9	25.8900	0.2100	0.0000	0.0000;
	11126	1	0	0	0	0	11	1.008779	-8.269404	69	1	1.1	0.9	26.7000	0.3300	0.0000	0.0000;
	11127	1	7.83	2.04	0	0	11	1.0087405	-8.274057	69	1	1.1	0.9	26.7000	0.3300	0.0000	0.0000;
	11128	1	37.21	13.72	0	0	11	0.9969057	-7.751016	69	1	1.1	0.9	26.5300	0.3600	0.0000	0.0000;
	11129	1	34.63	12.39	0	0	11	1.0298177	-2.410173	138	1	1.1	0.9	25.5300	0.1100	0.0000	0.0000;
	11130	1	0	0	0	0	11	1.0035692	-7.263243	69	1	1.1	0.9	26.3100	0.2900	0.0000	0.0000;
	11131	1	14.53	3.05	0	0	11	1.0034961	-7.271371	69	1	1.1	0.9	26.3200	0.2900	0.0000	0.0000;
	11132	1	0	0	0	0	11	1.0209653	-5.82506	69	1	1.1	0.9	26.0600	0.2400	0.0000	0.0000;
	11133	1	7.65	2.25	0	0	11	1.0209208	-5.829453	69	1	1.1	0.9	26.0600	0.2400	0.0000	0.0000;
	11134	1	39.75	5.63	0	0	11	1.0291473	-7.215593	69	1	1.1	0.9	25.7100	0.3300	0.0000	0.0000;
	11135	1	0	0	0	0	11	1.0293177	-7.192281	69	1	1.1	0.9	25.7000	0.3300	0.0000	0.0000;
	11136	1	0	0	0	0	11	1.0293861	-2.917687	138	1	1.1	0.9	25.6300	0.1600	0.0000	0.0000;
	11137	1	0	0	0	0	11	1.0315448	-6.822126	69	1	1.1	0.9	25.5700	0.3200	0.0000	0.0000;
	11138	1	0	0	0	0	11	1.0408022	-11.605904	18	1	1.1	0.9	25.5300	0.5200	0.0000	0.0000;
	11139	1	0	0	0	0	11	1.0408022	-11.605904	1	1	1.1	0.9	25.5300	0.5200	0.0000	0.0000;
	11140	1	39.75	4.83	0	0	11	1.0292509	-2.939215	138	1	1.1	0.9	25.6300	0.1600	0.0000	0.0000;
	11141	1	38.43	17.87	0	0	11	1.0189279	-8.839658	69	1	1.1	0.9	26.3200	0.4300	0.0000	0.0000;
	11142	1	0	0	0	0	11	1.0267166	-4.217437	138	1	1.1	0.9	25.8100	0.1800	0.0000	0.0000;
	11143	1	0	0	0	0	11	1.0248525	-8.243337	69	1	1.1	0.9	26.0600	0.3800	0.0000	0.0000;
	11144	1	0	0	0	0	11	1.0310928	-14.040347	13.2	1	1.1	0.9	26.4800	0.6000	0.0000	0.0000;
	11145	1	0	0	0	0	11	1.0310928	-14.040347	1	1	1.1	0.9	26.4800	0.6000	0.0000	0.0000;
	11146	1	0	0	0	0	11	1.0270246	-4.17333	138	1	1.1	0.9	25.7900	0.1800	0.0000	0.0000;
	11147	1	38.43	9.55	0	0	11	1.0265133	-4.240921	138	1	1.1	0.9	25.8100	0.1800	0.0000	0.0000;
	11148	1	7.17	1.14	0	0	11	0.9981935	-7.414332	69	1	1.1	0.9	26.4500	0.3700	0.0000	0.0000;
	11149	1	48.3	7.99	0	0	11	1.0271534	-6.45102	138	1	1.1	0.9	26.0700	0.2000	0.0000	0.0000;
	11150	1	25.95	6.14	0	0	11	1.0077535	-11.849782	69	1	1.1	0.9	27.0800	0.4800	0.0000	0.0000;
	11151	1	0	0	0	0	11	1.0192962	-6.81146	138	1	1.1	0.9	26.3400	0.1400	0.0000	0.0000;
	11152	1	3.23	1.05	0	0	11	1.0312771	-9.58516	69	1	1.1	0.9	26.5200	0.1300	0.0000	0.0000;
	11153	1	36.61	5.93	0	0	11	1.019138	-6.832089	138	1	1.1	0.9	26.3500	0.1400	0.0000	0.0000;
	11154	1	0	0	0	0	11	1.0235114	-10.66469	69	1	1.1	0.9	26.9500	0.1400	0.0000	0.0000;
	11155	1	36.61	0.87	0	0	11	1.0234143	-10.685745	69	1	1.1	0.9	26.9500	0.1400	0.0000	0.0000;
	11156	1	0	0	0	0	11	1.0236146	-10.643334	69	1	1.1	0.9	26.9400	0.1400	0.0000	0.0000;
	11157	1	0	0	0	0	11	1.0235114	-10.66469	69	1	1.1	0.9	26.9500	0.1400	0.0000	0.0000;
	11158	1	0	0	0	0	11	1.0293257	-4.937603	345	1	1.1	0.9	26.0400	0.0900	0.0000	0.0000;
	11159	1	0	0	0	0	11	1.0352783	-6.491064	138	1	1.1	0.9	26.1300	0.0800	0.0000	0.0000;
	11160	1	0	0	0	0	11	1.0381698	-7.313145	69	1	1.1	0.9	26.2200	0.0100	0.0000	0.0000;
	11161	1	44.36	11.49	0	0	11	1.0350717	-6.514897	138	1	1.1	0.9	26.1300	0.0800	0.0000	0.0000;
	11162	1	0	0	0	0	11	1.0284896	-7.241911	138	1	1.1	0.9	26.2700	0.1200	0.0000	0.0000;
	11163	1	6.33	0.74	0	0	11	1.0332429	-7.177228	69	1	1.1	0.9	26.3000	0.0500	0.0000	0.0000;
	11164	1	34.11	5.36	0	0	11	1.0283623	-7.260716	138	1	1.1	0.9	26.2700	0.1200	0.0000	0.0000;
	11165	1	0	0	0	0	11	1.0220161	-10.732525	69	1	1.1	0.9	26.6900	0.3400	0.0000	0.0000;
	11166	1	42.42	16.76	0	0	11	1.0217353	-10.75432	69	1	1.1	0.9	26.7000	0.3400	0.0000	0.0000;
	11167	1	0	0	0	0	11	1.0223131	-10.709134	69	1	1.1	0.9	26.6800	0.3400	0.0000	0.0000;
	11168	1	0	0	0	0	11	1.0246913	-7.241513	138	1	1.1	0.9	26.2600	0.2400	0.0000	0.0000;
	11169	1	0	0	0	0	11	1.0240718	-10.366368	69	1	1.1	0.9	26.5600	0.3400	0.0000	0.0000;
	11170	1	0	0	0	0	11	1.0239409	-9.582433	20	1	1.1	0.9	26.4800	0.3200	0.0000	0.0000;
	11171	1	0	0	0	0	11	1.0239409	-9.582433	1	1	1.1	0.9	26.4800	0.3200	0.0000	0.0000;
	11172	1	42.42	13.93	0	0	11	1.02444	-7.26737	138	1	1.1	0.9	26.2700	0.2400	0.0000	0.0000;
	11173	1	55.7	38.61	0	0	11	1.0240415	-6.754964	138	1	1.1	0.9	26.1800	0.2500	0.0000	0.0000;
	11174	1	0	0	0	0	11	1.026258	-4.140243	345	1	1.1	0.9	25.9600	0.1800	0.0000	0.0000;
	11175	1	0	0	0	0	11	1.0327057	-5.763518	138	1	1.1	0.9	25.9700	0.2000	0.0000	0.0000;
	11176	1	0	0	0	0	11	1.0362538	-8.648153	69	1	1.1	0.9	25.9800	0.2700	0.0000	0.0000;
	11177	1	55.7	1.72	0	0	11	1.0261076	-4.17169	345	1	1.1	0.9	25.9700	0.1800	0.0000	0.0000;
	11178	1	0	0	0	0	11	1.0305231	-3.672612	345	1	1.1	0.9	25.8500	0.1400	0.0000	0.0000;
	11179	1	12.51	3.13	0	0	11	1.0325362	-7.611771	69	1	1.1	0.9	26.3700	0.0500	0.0000	0.0000;
	11180	1	30.37	4.37	0	0	11	1.0285527	-3.183606	138	1	1.1	0.9	25.7100	0.1500	0.0000	0.0000;
	11181	1	0	0	0	0	11	1.0286698	-3.164991	138	1	1.1	0.9	25.7000	0.1500	0.0000	0.0000;
	11182	1	0	0	0	0	11	1.0285527	-3.183606	138	1	1.1	0.9	25.7100	0.1500	0.0000	0.0000;
	11183	1	20.58	10.68	0	0	11	1.0169414	-4.474134	69	1	1.1	0.9	25.7400	0.3300	0.0000	0.0000;
	11184	1	0	0	0	0	11	1.0171075	-4.464102	69	1	1.1	0.9	25.7300	0.3200	0.0000	0.0000;
	11185	1	0	0	0	0	11	1.0043052	-7.126505	69	1	1.1	0.9	25.9800	0.3300	0.0000	0.0000;
	11186	1	40	8.86	0	0	11	1.0041163	-7.151764	69	1	1.1	0.9	25.9800	0.3300	0.0000	0.0000;
	11187	1	0	0	0	0	11	1.0264458	-8.915384	69	1	1.1	0.9	26.1300	0.3600	0.0000	0.0000;
	11188	1	18.7	9.54	0	0	11	1.0262997	-8.924881	69	1	1.1	0.9	26.1300	0.3600	0.0000	0.0000;
	11189	1	39.23	9.15	0	0	11	1.0119064	-10.490988	69	1	1.1	0.9	26.7600	0.4700	0.0000	0.0000;
	11190	1	0	0	0	0	11	1.0121223	-10.466689	69	1	1.1	0.9	26.7500	0.4700	0.0000	0.0000;
	11191	1	0	0	0	0	11	1.0303687	-7.14748	138	1	1.1	0.9	26.2400	0.1000	0.0000	0.0000;
	11192	1	21.45	4.71	0	0	11	1.0302601	-7.159882	138	1	1.1	0.9	26.2500	0.1000	0.0000	0.0000;
	11193	1	0	0	0	0	11	1.023669	-7.477214	69	1	1.1	0.9	26.0400	0.3500	0.0000	0.0000;
	11194	1	32.21	11.63	0	0	11	1.0234601	-7.495308	69	1	1.1	0.9	26.0400	0.3500	0.0000	0.0000;
	11195	1	0	0	0	0	11	0.9990481	-7.377161	69	1	1.1	0.9	26.4100	0.3500	0.0000	0.0000;
	11196	1	22.55	5.68	0	0	11	0.9989234	-7.391848	69	1	1.1	0.9	26.4200	0.3500	0.0000	0.0000;
	11197	1	0	0	0	0	11	0.9991743	-7.364005	69	1	1.1	0.9	26.4100	0.3500	0.0000	0.0000;
	11198	1	0	0	0	0	11	1.0305856	-0.989511	138	1	1.1	0.9	25.3800	0.0600	0.0000	0.0000;
	11199	1	0	0	0	0	11	1.0099249	-6.649485	69	1	1.1	0.9	25.7800	0.2900	0.0000	0.0000;
	11200	1	0	0	0	0	11	0.9982935	-14.540626	18	1	1.1	0.9	26.3900	0.4600	0.0000	0.0000;
...
];

%% generator data
%	bus	Pg	Qg	Qmax	Qmin	Vg	mBase	status	Pmax	Pmin	Pc1	Pc2	Qc1min	Qc1max	Qc2min	Qc2max	ramp_agc	ramp_10	ramp_30	ramp_q	apf	mu_Pmax	mu_Pmin	mu_Qmax	mu_Qmin
mpc.gen = [
	11294	1.6	0.81	0.81	-0.18	1.0269	1.92	1	1.6	0.6	0	0	0	0	0	0	0	0	0	0	1.6	0.0000	0.0000	0.0000	0.0000;
	11297	0	0	1.35	-0.35	1.04	3.48	0	2.9	1.25	0	0	0	0	0	0	0	0	0	0	2.9	0.0000	0.0000	0.0000	0.0000;
	11299	1.03	0.52	0.52	-0.11	1.04	1.23	1	1.03	0.19	0	0	0	0	0	0	0	0	0	0	1.025	0.0000	0.0000	0.0000	0.0000;
	11299	1.03	0.52	0.52	-0.11	1.04	1.23	1	1.03	0.18	0	0	0	0	0	0	0	0	0	0	1.025	0.0000	0.0000	0.0000	0.0000;
	11299	1.03	0.52	0.52	-0.11	1.04	1.23	1	1.03	0.3	0	0	0	0	0	0	0	0	0	0	1.025	0.0000	0.0000	0.0000	0.0000;
	11299	1.03	0.52	0.52	-0.11	1.04	1.23	1	1.03	0.41	0	0	0	0	0	0	0	0	0	0	1.025	0.0000	0.0000	0.0000	0.0000;
	11299	1.1	0.56	0.56	-0.12	1.04	1.32	1	1.1	0.54	0	0	0	0	0	0	0	0	0	0	1.1	0.0000	0.0000	0.0000	0.0000;
	11299	1.1	0.56	0.56	-0.12	1.04	1.32	1	1.1	0.29	0	0	0	0	0	0	0	0	0	0	1.1	0.0000	0.0000	0.0000	0.0000;
	11299	1.1	0.56	0.56	-0.12	1.04	1.32	1	1.1	0.3	0	0	0	0	0	0	0	0	0	0	1.1	0.0000	0.0000	0.0000	0.0000;
	11302	0	0	0.5	-0.06	1.0344	1.56	0	1.3	0.58	0	0	0	0	0	0	0	0	0	0	1.3	0.0000	0.0000	0.0000	0.0000;
	11303	1.3	-0.06	0.5	-0.06	1.0343	1.56	1	1.3	0.42	0	0	0	0	0	0	0	0	0	0	1.3	0.0000	0.0000	0.0000	0.0000;
	11303	1.3	-0.06	0.5	-0.06	1.0343	1.56	1	1.3	0.23	0	0	0	0	0	0	0	0	0	0	1.3	0.0000	0.0000	0.0000	0.0000;
	11304	1.3	-0.06	0.5	-0.06	1.0343	1.56	1	1.3	0.42	0	0	0	0	0	0	0	0	0	0	1.3	0.0000	0.0000	0.0000	0.0000;
	11309	0	0	0.84	-0.22	1.0105	2.16	0	1.8	0.58	0	0	0	0	0	0	0	0	0	0	1.8	0.0000	0.0000	0.0000	0.0000;
	11309	0	0	0.84	-0.22	1.0105	2.16	0	1.8	0.56	0	0	0	0	0	0	0	0	0	0	1.8	0.0000	0.0000	0.0000	0.0000;
	11310	0	0	0.84	-0.22	1.0105	2.16	0	1.8	0.65	0	0	0	0	0	0	0	0	0	0	1.8	0.0000	0.0000	0.0000	0.0000;
	11311	0	0	0.84	-0.22	1.0105	2.16	0	1.8	0.58	0	0	0	0	0	0	0	0	0	0	1.8	0.0000	0.0000	0.0000	0.0000;
	11315	50.6	25.76	25.76	-5.62	1.006	60.72	1	50.6	16.87	0	0	0	0	0	0	0	0	0	0	50.6	0.0000	0.0000	0.0000	0.0000;
	11316	50.6	25.76	25.76	-5.62	1.007	60.72	1	50.6	20.09	0	0	0	0	0	0	0	0	0	0	50.6	0.0000	0.0000	0.0000	0.0000;
	11320	3.6	1.38	1.38	-0.18	1.0582	4.32	1	3.6	1.64	0	0	0	0	0	0	0	0	0	0	3.6	0.0000	0.0000	0.0000	0.0000;
	11320	3.6	1.38	1.38	-0.18	1.0582	4.32	1	3.6	1.38	0	0	0	0	0	0	0	0	0	0	3.6	0.0000	0.0000	0.0000	0.0000;
	11321	3.6	1.38	1.38	-0.18	1.0564	4.32	1	3.6	1.61	0	0	0	0	0	0	0	0	0	0	3.6	0.0000	0.0000	0.0000	0.0000;
	11321	0	0	1.38	-0.18	1.0564	4.32	0	3.6	1.08	0	0	0	0	0	0	0	0	0	0	3.6	0.0000	0.0000	0.0000	0.0000;
	11322	3.6	1.38	1.38	-0.18	1.059	4.32	1	3.6	1.63	0	0	0	0	0	0	0	0	0	0	3.6	0.0000	0.0000	0.0000	0.0000;
	11325	5.5	2.8	2.8	-0.61	1.0195	6.6	1	5.5	2.49	0	0	0	0	0	0	0	0	0	0	5.5	0.0000	0.0000	0.0000	0.0000;
	11326	5.5	2.8	2.8	-0.61	1.0195	6.6	1	5.5	1.41	0	0	0	0	0	0	0	0	0	0	5.5	0.0000	0.0000	0.0000	0.0000;
	11330	0	0	0.77	-0.1	1.0323	2.4	0	2	0.22	0	0	0	0	0	0	0	0	0	0	2	0.0000	0.0000	0.0000	0.0000;
	11332	0	0	0.84	-0.22	1.04	2.16	0	1.8	0.41	0	0	0	0	0	0	0	0	0	0	1.8	0.0000	0.0000	0.0000	0.0000;
	11332	0	0	0.84	-0.22	1.04	2.16	0	1.8	0.29	0	0	0	0	0	0	0	0	0	0	1.8	0.0000	0.0000	0.0000	0.0000;
	11332	0	0	0.84	-0.22	1.04	2.16	0	1.8	0.19	0	0	0	0	0	0	0	0	0	0	1.8	0.0000	0.0000	0.0000	0.0000;
	11333	4.3	-0.21	1.65	-0.21	1.045	5.16	1	4.3	2.01	0	0	0	0	0	0	0	0	0	0	4.3	0.0000	0.0000	0.0000	0.0000;
	11334	1.43	1.35	1.35	-0.35	1.039	3.48	1	2.9	1.43	0	0	0	0	0	0	0	0	0	0	2.9	0.0000	0.0000	0.0000	0.0000;
	11334	0	0	1.35	-0.35	1.039	3.48	0	2.9	1.19	0	0	0	0	0	0	0	0	0	0	2.9	0.0000	0.0000	0.0000	0.0000;
	11336	1.1	0.42	0.42	-0.05	1.0372	1.32	1	1.1	0.38	0	0	0	0	0	0	0	0	0	0	1.1	0.0000	0.0000	0.0000	0.0000;
	11339	15	-0.74	5.76	-0.74	1.0305	18	1	15	3.88	0	0	0	0	0	0	0	0	0	0	15	0.0000	0.0000	0.0000	0.0000;
	11340	15	-0.74	5.76	-0.74	1.0177	18	1	15	2.94	0	0	0	0	0	0	0	0	0	0	15	0.0000	0.0000	0.0000	0.0000;
	11340	15	-0.74	5.76	-0.74	1.0177	18	1	15	2.83	0	0	0	0	0	0	0	0	0	0	15	0.0000	0.0000	0.0000	0.0000;
	11341	0	0	5.76	-0.74	1.0499	18	0	15	6.36	0	0	0	0	0	0	0	0	0	0	15	0.0000	0.0000	0.0000	0.0000;
	11348	1	0.38	0.38	-0.05	1.0396	1.2	1	1	0.35	0	0	0	0	0	0	0	0	0	0	1	0.0000	0.0000	0.0000	0.0000;
	11355	0.6	0.23	0.23	-0.03	1.0171	0.72	1	0.6	0.19	0	0	0	0	0	0	0	0	0	0	0.6	0.0000	0.0000	0.0000	0.0000;
	11356	0.6	0.23	0.23	-0.03	1.0184	0.72	1	0.6	0.19	0	0	0	0	0	0	0	0	0	0	0.6	0.0000	0.0000	0.0000	0.0000;
	11356	0.6	0.23	0.23	-0.03	1.0184	0.72	1	0.6	0.22	0	0	0	0	0	0	0	0	0	0	0.6	0.0000	0.0000	0.0000	0.0000;
	11357	0.6	0.23	0.23	-0.03	1.0187	0.72	1	0.6	0.2	0	0	0	0	0	0	0	0	0	0	0.6	0.0000	0.0000	0.0000	0.0000;
	11362	0.7	0.27	0.27	-0.03	1.0625	0.84	1	0.7	0.3	0	0	0	0	0	0	0	0	0	0	0.7	0.0000	0.0000	0.0000	0.0000;
	11363	0.7	0.27	0.27	-0.03	1.0633	0.84	1	0.7	0.1	0	0	0	0	0	0	0	0	0	0	0.7	0.0000	0.0000	0.0000	0.0000;
	11365	0	0	0.61	-0.16	1.04	1.56	0	1.3	0.61	0	0	0	0	0	0	0	0	0	0	1.3	0.0000	0.0000	0.0000	0.0000;
	11366	0	0	0.61	-0.16	1.0166	1.56	0	1.3	0.58	0	0	0	0	0	0	0	0	0	0	1.3	0.0000	0.0000	0.0000	0.0000;
	11367	0	0	0.61	-0.16	1.0166	1.56	0	1.3	0.36	0	0	0	0	0	0	0	0	0	0	1.3	0.0000	0.0000	0.0000	0.0000;
	11372	193.5	14.41	74.3	-9.48	1.0439	232.2	1	193.5	39.82	0	0	0	0	0	0	0	0	0	0	193.5	0.0000	0.0000	0.0000	0.0000;
	11373	0	0	74.3	-9.48	1.04	232.2	0	193.5	31.96	0	0	0	0	0	0	0	0	0	0	193.5	0.0000	0.0000	0.0000	0.0000;
	11374	193.5	14.41	74.3	-9.48	1.0439	232.2	1	193.5	31.34	0	0	0	0	0	0	0	0	0	0	193.5	0.0000	0.0000	0.0000	0.0000;
	11375	193.5	14.41	74.3	-9.48	1.0449	232.2	1	193.5	40.92	0	0	0	0	0	0	0	0	0	0	193.5	0.0000	0.0000	0.0000	0.0000;
	11380	888.9	68.93	327.12	-72.89	1.0468	1066.68	1	888.9	358.44	0	0	0	0	0	0	0	0	0	0	888.9	0.0000	0.0000	0.0000	0.0000;
	11381	888.9	68.93	327.12	-72.89	1.0465	1066.68	1	888.9	250.85	0	0	0	0	0	0	0	0	0	0	888.9	0.0000	0.0000	0.0000	0.0000;
	11382	888.9	68.93	327.12	-72.89	1.0464	1066.68	1	888.9	196.87	0	0	0	0	0	0	0	0	0	0	888.9	0.0000	0.0000	0.0000	0.0000;
	11389	197	-15.11	100.27	-21.87	1.0355	236.4	1	197	89.23	0	0	0	0	0	0	0	0	0	0	197	0.0000	0.0000	0.0000	0.0000;
	11390	197	-15.11	100.27	-21.87	1.035	236.4	1	197	84.26	0	0	0	0	0	0	0	0	0	0	197	0.0000	0.0000	0.0000	0.0000;
	11391	197	-15.11	100.27	-21.87	1.0361	236.4	1	197	82.38	0	0	0	0	0	0	0	0	0	0	197	0.0000	0.0000	0.0000	0.0000;
	11392	197	-15.11	100.27	-21.87	1.0353	236.4	1	197	26.04	0	0	0	0	0	0	0	0	0	0	197	0.0000	0.0000	0.0000	0.0000;
	11393	197	-15.11	100.27	-21.87	1.0368	236.4	1	197	33.65	0	0	0	0	0	0	0	0	0	0	197	0.0000	0.0000	0.0000	0.0000;
	11396	0	0	0.64	-0.08	1.038	2.01	0	1.68	0.36	0	0	0	0	0	0	0	0	0	0	1.675	0.0000	0.0000	0.0000	0.0000;
	11396	0	0	0.64	-0.08	1.038	2.01	0	1.68	0.44	0	0	0	0	0	0	0	0	0	0	1.675	0.0000	0.0000	0.0000	0.0000;
	11396	1.68	-0.08	0.64	-0.08	1.038	2.01	1	1.68	0.56	0	0	0	0	0	0	0	0	0	0	1.675	0.0000	0.0000	0.0000	0.0000;
	11396	1.68	-0.08	0.64	-0.08	1.038	2.01	1	1.68	0.29	0	0	0	0	0	0	0	0	0	0	1.675	0.0000	0.0000	0.0000	0.0000;
	11397	3.3	1.27	1.27	-0.16	1.0455	3.96	1	3.3	0.44	0	0	0	0	0	0	0	0	0	0	3.3	0.0000	0.0000	0.0000	0.0000;
	11401	3.1	0.45	1.19	-0.15	1.0208	3.72	1	3.1	0.83	0	0	0	0	0	0	0	0	0	0	3.1	0.0000	0.0000	0.0000	0.0000;
	11402	0	0	1.19	-0.15	1.0196	3.72	0	3.1	0.98	0	0	0	0	0	0	0	0	0	0	3.1	0.0000	0.0000	0.0000	0.0000;
	11406	0	0	0.77	-0.2	1.027	1.98	0	1.65	0.66	0	0	0	0	0	0	0	0	0	0	1.65	0.0000	0.0000	0.0000	0.0000;
	11406	1.65	0.77	0.77	-0.2	1.027	1.98	1	1.65	0.19	0	0	0	0	0	0	0	0	0	0	1.65	0.0000	0.0000	0.0000	0.0000;
	11407	0	0	0.23	-0.06	1.0276	0.6	0	0.5	0.24	0	0	0	0	0	0	0	0	0	0	0.5	0.0000	0.0000	0.0000	0.0000;
	11407	0.5	0.23	0.23	-0.06	1.0276	0.6	1	0.5	0.21	0	0	0	0	0	0	0	0	0	0	0.5	0.0000	0.0000	0.0000	0.0000;
	11412	3	-0.15	1.15	-0.15	1.043	3.6	1	3	1.35	0	0	0	0	0	0	0	0	0	0	3	0.0000	0.0000	0.0000	0.0000;
	11412	3	-0.15	1.15	-0.15	1.043	3.6	1	3	0.68	0	0	0	0	0	0	0	0	0	0	3	0.0000	0.0000	0.0000	0.0000;
	11412	3	-0.15	1.15	-0.15	1.043	3.6	1	3	0.34	0	0	0	0	0	0	0	0	0	0	3	0.0000	0.0000	0.0000	0.0000;
	11412	3	-0.15	1.15	-0.15	1.043	3.6	1	3	0.92	0	0	0	0	0	0	0	0	0	0	3	0.0000	0.0000	0.0000	0.0000;
	11412	0	0	1.15	-0.15	1.043	3.6	0	3	1.33	0	0	0	0	0	0	0	0	0	0	3	0.0000	0.0000	0.0000	0.0000;
	11412	0	0	1.15	-0.15	1.043	3.6	0	3	0.73	0	0	0	0	0	0	0	0	0	0	3	0.0000	0.0000	0.0000	0.0000;
	11415	0	0	1.35	-0.35	1.0051	3.48	0	2.9	1.16	0	0	0	0	0	0	0	0	0	0	2.9	0.0000	0.0000	0.0000	0.0000;
	11417	2.9	1.35	1.35	-0.35	1.04	3.48	1	2.9	1.35	0	0	0	0	0	0	0	0	0	0	2.9	0.0000	0.0000	0.0000	0.0000;
	11421	175	89.07	89.07	-19.43	1.0091	210	1	175	83.09	0	0	0	0	0	0	0	0	0	0	175	0.0000	0.0000	0.0000	0.0000;
	11422	54	27.49	27.49	-5.99	1.0073	64.8	1	54	15.82	0	0	0	0	0	0	0	0	0	0	54	0.0000	0.0000	0.0000	0.0000;
	11423	54	27.49	27.49	-5.99	1.0116	64.8	1	54	26.7	0	0	0	0	0	0	0	0	0	0	54	0.0000	0.0000	0.0000	0.0000;
	11433	1205.1	207.63	443.48	-98.82	1.0524	1446.12	1	1205.1	277.37	0	0	0	0	0	0	0	0	0	0	1205.1	0.0000	0.0000	0.0000	0.0000;
	11434	1205.1	207.63	443.48	-98.82	1.0542	1446.12	1	1205.1	391.05	0	0	0	0	0	0	0	0	0	0	1205.1	0.0000	0.0000	0.0000	0.0000;
	11440	173.33	17.32	88.23	-19.24	0.9859	208	1	173.33	65.27	0	0	0	0	0	0	0	0	0	0	173.3333	0.0000	0.0000	0.0000	0.0000;
	11441	173.33	17.32	88.23	-19.24	0.9847	208	1	173.33	65.22	0	0	0	0	0	0	0	0	0	0	173.3333	0.0000	0.0000	0.0000	0.0000;
	11442	173.33	17.32	88.23	-19.24	0.9874	208	1	173.33	80.1	0	0	0	0	0	0	0	0	0	0	173.3333	0.0000	0.0000	0.0000	0.0000;
	11443	116.4	17.32	59.25	-12.92	0.9873	139.68	1	116.4	17.44	0	0	0	0	0	0	0	0	0	0	116.4	0.0000	0.0000	0.0000	0.0000;
	11444	116.4	17.32	59.25	-12.92	0.9871	139.68	1	116.4	32.21	0	0	0	0	0	0	0	0	0	0	116.4	0.0000	0.0000	0.0000	0.0000;
	11445	116.4	17.32	59.25	-12.92	0.9867	139.68	1	116.4	18.13	0	0	0	0	0	0	0	0	0	0	116.4	0.0000	0.0000	0.0000	0.0000;
	11446	116.4	17.32	59.25	-12.92	0.9881	139.68	1	116.4	45.3	0	0	0	0	0	0	0	0	0	0	116.4	0.0000	0.0000	0.0000	0.0000;
	11447	116.4	17.32	59.25	-12.92	0.9874	139.68	1	116.4	28.67	0	0	0	0	0	0	0	0	0	0	116.4	0.0000	0.0000	0.0000	0.0000;
	11452	5	1.92	1.92	-0.25	1.0016	6	1	5	1.65	0	0	0	0	0	0	0	0	0	0	5	0.0000	0.0000	0.0000	0.0000;
	11453	5	1.92	1.92	-0.25	0.9999	6	1	5	2.04	0	0	0	0	0	0	0	0	0	0	5	0.0000	0.0000	0.0000	0.0000;
	11453	5	1.92	1.92	-0.25	0.9999	6	1	5	2.16	0	0	0	0	0	0	0	0	0	0	5	0.0000	0.0000	0.0000	0.0000;
	11457	1.6	0.81	0.81	-0.18	1.0138	1.92	1	1.6	0.52	0	0	0	0	0	0	0	0	0	0	1.6	0.0000	0.0000	0.0000	0.0000;
	11457	1.6	0.81	0.81	-0.18	1.0138	1.92	1	1.6	0.72	0	0	0	0	0	0	0	0	0	0	1.6	0.0000	0.0000	0.0000	0.0000;
	11459	78.8	1.42	30.26	-3.86	1.036	94.56	1	78.8	21.14	0	0	0	0	0	0	0	0	0	0	78.8	0.0000	0.0000	0.0000	0.0000;
	11459	78.8	1.42	30.26	-3.86	1.036	94.56	1	78.8	33.13	0	0	0	0	0	0	0	0	0	0	78.8	0.0000	0.0000	0.0000	0.0000;
	11467	0	0	124.42	-15.88	1.041	388.8	0	324	38.46	0	0	0	0	0	0	0	0	0	0	324	0.0000	0.0000	0.0000	0.0000;
	11468	324	47.33	124.42	-15.88	1.0485	388.8	1	324	79.56	0	0	0	0	0	0	0	0	0	0	324	0.0000	0.0000	0.0000	0.0000;
	11469	324	47.33	124.42	-15.88	1.0522	388.8	1	324	128.82	0	0	0	0	0	0	0	0	0	0	324	0.0000	0.0000	0.0000	0.0000;
	11470	324	47.33	124.42	-15.88	1.0486	388.8	1	324	83.92	0	0	0	0	0	0	0	0	0	0	324	0.0000	0.0000	0.0000	0.0000;
	11472	0.62	0.93	0.93	-0.24	1.0135	2.4	1	2	0.62	0	0	0	0	0	0	0	0	0	0	2	0.0000	0.0000	0.0000	0.0000;
	11472	0	0	0.93	-0.24	1.0135	2.4	0	2	0.61	0	0	0	0	0	0	0	0	0	0	2	0.0000	0.0000	0.0000	0.0000;
	11473	0	0	0.93	-0.24	0.9976	2.4	0	2	0.3	0	0	0	0	0	0	0	0	0	0	2	0.0000	0.0000	0.0000	0.0000;
	11473	0	0	0.93	-0.24	0.9976	2.4	0	2	0.62	0	0	0	0	0	0	0	0	0	0	2	0.0000	0.0000	0.0000	0.0000;
	11474	0	0	0.93	-0.24	0.9976	2.4	0	2	0.62	0	0	0	0	0	0	0	0	0	0	2	0.0000	0.0000	0.0000	0.0000;
	11479	1	-0.05	0.38	-0.05	1.0419	1.2	1	1	0.27	0	0	0	0	0	0	0	0	0	0	1	0.0000	0.0000	0.0000	0.0000;
	11480	0	0	0.38	-0.05	1.029	1.2	0	1	0.19	0	0	0	0	0	0	0	0	0	0	1	0.0000	0.0000	0.0000	0.0000;
	11481	1	-0.05	0.38	-0.05	1.0421	1.2	1	1	0.22	0	0	0	0	0	0	0	0	0	0	1	0.0000	0.0000	0.0000	0.0000;
	11481	1	-0.05	0.38	-0.05	1.0421	1.2	1	1	0.25	0	0	0	0	0	0	0	0	0	0	1	0.0000	0.0000	0.0000	0.0000;
	11485	5	2.55	2.55	-0.55	1.04	6	1	5	1.95	0	0	0	0	0	0	0	0	0	0	5	0.0000	0.0000	0.0000	0.0000;
	11485	5	2.55	2.55	-0.55	1.04	6	1	5	1.07	0	0	0	0	0	0	0	0	0	0	5	0.0000	0.0000	0.0000	0.0000;
	11487	1.12	1.35	1.35	-0.35	1.041	3.48	1	2.9	1.12	0	0	0	0	0	0	0	0	0	0	2.9	0.0000	0.0000	0.0000	0.0000;
	11491	133.2	52.69	67.8	-14.79	1.0051	159.84	1	133.2	53.14	0	0	0	0	0	0	0	0	0	0	133.2	0.0000	0.0000	0.0000	0.0000;
	11492	133.2	52.69	67.8	-14.79	1.007	159.84	1	133.2	25.86	0	0	0	0	0	0	0	0	0	0	133.2	0.0000	0.0000	0.0000	0.0000;
	11493	133.2	52.69	67.8	-14.79	1.0045	159.84	1	133.2	21.19	0	0	0	0	0	0	0	0	0	0	133.2	0.0000	0.0000	0.0000	0.0000;
	11494	133.2	52.69	67.8	-14.79	1.0056	159.84	1	133.2	58.12	0	0	0	0	0	0	0	0	0	0	133.2	0.0000	0.0000	0.0000	0.0000;
	11495	133.2	52.69	67.8	-14.79	1.0035	159.84	1	133.2	37.14	0	0	0	0	0	0	0	0	0	0	133.2	0.0000	0.0000	0.0000	0.0000;
	11496	133.2	52.69	67.8	-14.79	1.0047	159.84	1	133.2	40.72	0	0	0	0	0	0	0	0	0	0	133.2	0.0000	0.0000	0.0000	0.0000;
	11499	0.6	0.23	0.23	-0.03	1.045	0.72	1	0.6	0.16	0	0	0	0	0	0	0	0	0	0	0.6	0.0000	0.0000	0.0000	0.0000;
	11499	0.6	0.23	0.23	-0.03	1.045	0.72	1	0.6	0.09	0	0	0	0	0	0	0	0	0	0	0.6	0.0000	0.0000	0.0000	0.0000;
	14176	46.33	23.58	23.58	-5.14	1.0069	55.6	1	46.33	20.91	0	0	0	0	0	0	0	0	0	0	46.3333	0.0000	0.0000	0.0000	0.0000;
	14177	46.33	23.58	23.58	-5.14	1.0052	55.6	1	46.33	17.51	0	0	0	0	0	0	0	0	0	0	46.3333	0.0000	0.0000	0.0000	0.0000;
	14177	46.33	23.58	23.58	-5.14	1.0052	55.6	1	46.33	15.03	0	0	0	0	0	0	0	0	0	0	46.3333	0.0000	0.0000	0.0000	0.0000;
	14179	14.4	7.33	7.33	-1.6	1.0425	17.28	1	14.4	3.8	0	0	0	0	0	0	0	0	0	0	14.4	0.0000	0.0000	0.0000	0.0000;
	14179	14.4	7.33	7.33	-1.6	1.0425	17.28	1	14.4	6.41	0	0	0	0	0	0	0	0	0	0	14.4	0.0000	0.0000	0.0000	0.0000;
	14182	1.8	-0.2	0.92	-0.2	1.0268	2.16	1	1.8	0.59	0	0	0	0	0	0	0	0	0	0	1.8	0.0000	0.0000	0.0000	0.0000;
	14183	0	0	0.92	-0.2	1.0269	2.16	0	1.8	0.42	0	0	0	0	0	0	0	0	0	0	1.8	0.0000	0.0000	0.0000	0.0000;
	14184	0	0	0.92	-0.2	1.0269	2.16	0	1.8	0.22	0	0	0	0	0	0	0	0	0	0	1.8	0.0000	0.0000	0.0000	0.0000;
	14188	0	0	0.7	-0.18	1.04	1.8	0	1.5	0.71	0	0	0	0	0	0	0	0	0	0	1.5	0.0000	0.0000	0.0000	0.0000;
	14188	0	0	0.7	-0.18	1.04	1.8	0	1.5	0.45	0	0	0	0	0	0	0	0	0	0	1.5	0.0000	0.0000	0.0000	0.0000;
	14188	0	0	0.7	-0.18	1.04	1.8	0	1.5	0.46	0	0	0	0	0	0	0	0	0	0	1.5	0.0000	0.0000	0.0000	0.0000;
	14188	0	0	0.7	-0.18	1.04	1.8	0	1.5	0.19	0	0	0	0	0	0	0	0	0	0	1.5	0.0000	0.0000	0.0000	0.0000;
	14190	0	0	24.7	-6.47	1.04	63.6	0	53	22.65	0	0	0	0	0	0	0	0	0	0	53	0.0000	0.0000	0.0000	0.0000;
	14190	0	0	24.7	-6.47	1.04	63.6	0	53	8.74	0	0	0	0	0	0	0	0	0	0	53	0.0000	0.0000	0.0000	0.0000;
	14190	0	0	24.7	-6.47	1.04	63.6	0	53	13.82	0	0	0	0	0	0	0	0	0	0	53	0.0000	0.0000	0.0000	0.0000;
	14190	0	0	24.7	-6.47	1.04	63.6	0	53	13.2	0	0	0	0	0	0	0	0	0	0	53	0.0000	0.0000	0.0000	0.0000;
	14199	11.4	0	0	0	1.0343	13.68	1	11.4	4.81	0	0	0	0	0	0	0	0	0	0	11.4	0.0000	0.0000	0.0000	0.0000;
	14202	0	0	0	0	1.0277	2.28	0	1.9	0.68	0	0	0	0	0	0	0	0	0	0	1.9	0.0000	0.0000	0.0000	0.0000;
	14202	1.8	0	0	0	1.0277	2.16	1	1.8	0.54	0	0	0	0	0	0	0	0	0	0	1.8	0.0000	0.0000	0.0000	0.0000;
	14206	1	0	0	0	1.0213	1.2	1	1	0.22	0	0	0	0	0	0	0	0	0	0	1	0.0000	0.0000	0.0000	0.0000;
	14207	1.3	0	0	0	1.0213	1.56	1	1.3	0.5	0	0	0	0	0	0	0	0	0	0	1.3	0.0000	0.0000	0.0000	0.0000;
	14209	0	0	0	0	1.0213	4.92	0	4.1	1.17	0	0	0	0	0	0	0	0	0	0	4.1	0.0000	0.0000	0.0000	0.0000;
	14212	1.5	0.76	0.76	-0.17	1.04	1.8	1	1.5	0.24	0	0	0	0	0	0	0	0	0	0	1.5	0.0000	0.0000	0.0000	0.0000;
	14212	0	0	0.76	-0.17	1.04	1.8	0	1.5	0.6	0	0	0	0	0	0	0	0	0	0	1.5	0.0000	0.0000	0.0000	0.0000;
	14212	0	0	0.76	-0.17	1.04	1.8	0	1.5	0.7	0	0	0	0	0	0	0	0	0	0	1.5	0.0000	0.0000	0.0000	0.0000;
	14213	1.5	0.76	0.76	-0.17	1.0547	1.8	1	1.5	0.51	0	0	0	0	0	0	0	0	0	0	1.5	0.0000	0.0000	0.0000	0.0000;
	14214	1.5	0.76	0.76	-0.17	1.0547	1.8	1	1.5	0.19	0	0	0	0	0	0	0	0	0	0	1.5	0.0000	0.0000	0.0000	0.0000;
	14216	68.2	-7.57	34.71	-7.57	1.0365	81.84	1	68.2	29.15	0	0	0	0	0	0	0	0	0	0	68.2	0.0000	0.0000	0.0000	0.0000;
	14219	0	0	0.93	-0.24	1.04	2.4	0	2	0.59	0	0	0	0	0	0	0	0	0	0	2	0.0000	0.0000	0.0000	0.0000;
	14219	0	0	0.93	-0.24	1.04	2.4	0	2	0.2	0	0	0	0	0	0	0	0	0	0	2	0.0000	0.0000	0.0000	0.0000;
	14219	0	0	0.93	-0.24	1.04	2.4	0	2	0.5	0	0	0	0	0	0	0	0	0	0	2	0.0000	0.0000	0.0000	0.0000;
	14221	0	0	0.25	-0.06	1.04	0.6	0	0.5	0.14	0	0	0	0	0	0	0	0	0	0	0.5	0.0000	0.0000	0.0000	0.0000;
	14221	0	0	0.25	-0.06	1.04	0.6	0	0.5	0.13	0	0	0	0	0	0	0	0	0	0	0.5	0.0000	0.0000	0.0000	0.0000;
	14221	14	7.13	7.13	-1.55	1.04	16.8	1	14	6.59	0	0	0	0	0	0	0	0	0	0	14	0.0000	0.0000	0.0000	0.0000;
	14222	0.5	0.25	0.25	-0.06	1.0354	0.6	1	0.5	0.11	0	0	0	0	0	0	0	0	0	0	0.5	0.0000	0.0000	0.0000	0.0000;
	14223	0.5	0.25	0.25	-0.06	1.0354	0.6	1	0.5	0.12	0	0	0	0	0	0	0	0	0	0	0.5	0.0000	0.0000	0.0000	0.0000;
	14228	5.3	0.92	2.7	-0.59	1.0416	6.36	1	5.3	1.78	0	0	0	0	0	0	0	0	0	0	5.3	0.0000	0.0000	0.0000	0.0000;
	14228	5.3	0.92	2.7	-0.59	1.0416	6.36	1	5.3	1.77	0	0	0	0	0	0	0	0	0	0	5.3	0.0000	0.0000	0.0000	0.0000;
	14232	17.5	8.91	8.91	-1.94	1.0649	21	1	17.5	5.94	0	0	0	0	0	0	0	0	0	0	17.5	0.0000	0.0000	0.0000	0.0000;
	14233	17.5	8.91	8.91	-1.94	1.0649	21	1	17.5	2.16	0	0	0	0	0	0	0	0	0	0	17.5	0.0000	0.0000	0.0000	0.0000;
	14239	100.83	20.16	51.32	-11.19	1.0438	121	1	100.83	44.87	0	0	0	0	0	0	0	0	0	0	100.8333	0.0000	0.0000	0.0000	0.0000;
	14240	100.83	20.16	51.32	-11.19	1.0428	121	1	100.83	40.31	0	0	0	0	0	0	0	0	0	0	100.8333	0.0000	0.0000	0.0000	0.0000;
	14241	100.83	20.16	51.32	-11.19	1.042	121	1	100.83	45.93	0	0	0	0	0	0	0	0	0	0	100.8333	0.0000	0.0000	0.0000	0.0000;
	14242	100.83	20.16	51.32	-11.19	1.0442	121	1	100.83	13.81	0	0	0	0	0	0	0	0	0	0	100.8333	0.0000	0.0000	0.0000	0.0000;
	14243	100.83	20.16	51.32	-11.19	1.0429	121	1	100.83	44.78	0	0	0	0	0	0	0	0	0	0	100.8333	0.0000	0.0000	0.0000	0.0000;
	14244	100.83	20.16	51.32	-11.19	1.0429	121	1	100.83	21.9	0	0	0	0	0	0	0	0	0	0	100.8333	0.0000	0.0000	0.0000	0.0000;
	14249	18.5	8.62	8.62	-2.26	1.042	22.2	1	18.5	5.74	0	0	0	0	0	0	0	0	0	0	18.5	0.0000	0.0000	0.0000	0.0000;
	14251	2.4	0.75	1.22	-0.27	1.041	2.88	1	2.4	0.46	0	0	0	0	0	0	0	0	0	0	2.4	0.0000	0.0000	0.0000	0.0000;
	14251	2.4	0.75	1.22	-0.27	1.041	2.88	1	2.4	0.94	0	0	0	0	0	0	0	0	0	0	2.4	0.0000	0.0000	0.0000	0.0000;
	14251	2.4	0.75	1.22	-0.27	1.041	2.88	1	2.4	0.29	0	0	0	0	0	0	0	0	0	0	2.4	0.0000	0.0000	0.0000	0.0000;
	14251	2.4	0.75	1.22	-0.27	1.041	2.88	1	2.4	1.07	0	0	0	0	0	0	0	0	0	0	2.4	0.0000	0.0000	0.0000	0.0000;
	14251	2.4	0.75	1.22	-0.27	1.041	2.88	1	2.4	0.92	0	0	0	0	0	0	0	0	0	0	2.4	0.0000	0.0000	0.0000	0.0000;
	14251	2.4	0.75	1.22	-0.27	1.041	2.88	1	2.4	0.6	0	0	0	0	0	0	0	0	0	0	2.4	0.0000	0.0000	0.0000	0.0000;
	14253	3	0	0	0	1.0316	3.6	1	3	1.08	0	0	0	0	0	0	0	0	0	0	3	0.0000	0.0000	0.0000	0.0000;
	14253	3	0	0	0	1.0316	3.6	1	3	1.09	0	0	0	0	0	0	0	0	0	0	3	0.0000	0.0000	0.0000	0.0000;
	14258	191.5	29.43	97.47	-21.26	1.0608	229.8	1	191.5	50.83	0	0	0	0	0	0	0	0	0	0	191.5	0.0000	0.0000	0.0000	0.0000;
	14259	191.5	29.43	97.47	-21.26	1.0611	229.8	1	191.5	94.76	0	0	0	0	0	0	0	0	0	0	191.5	0.0000	0.0000	0.0000	0.0000;
	14263	0	0	0	0	1.04	1.32	0	1.1	0.36	0	0	0	0	0	0	0	0	0	0	1.1	0.0000	0.0000	0.0000	0.0000;
	14263	0	0	0	0	1.04	1.68	0	1.4	0.27	0	0	0	0	0	0	0	0	0	0	1.4	0.0000	0.0000	0.0000	0.0000;
	14263	1.4	0	0	0	1.04	1.68	1	1.4	0.19	0	0	0	0	0	0	0	0	0	0	1.4	0.0000	0.0000	0.0000	0.0000;
	14264	1.2	0	0	0	1.04	1.44	1	1.2	0.35	0	0	0	0	0	0	0	0	0	0	1.2	0.0000	0.0000	0.0000	0.0000;
	14264	4	0	0	0	1.04	4.8	1	4	1.97	0	0	0	0	0	0	0	0	0	0	4	0.0000	0.0000	0.0000	0.0000;
	14268	37.14	18.9	18.9	-4.12	1.0444	44.57	1	37.14	14.47	0	0	0	0	0	0	0	0	0	0	37.14	0.0000	0.0000	0.0000	0.0000;
	14269	37.14	18.9	18.9	-4.12	1.0444	44.57	1	37.14	18.12	0	0	0	0	0	0	0	0	0	0	37.14	0.0000	0.0000	0.0000	0.0000;
	14271	60.5	30.79	30.79	-6.72	1.0477	72.6	1	60.5	15.4	0	0	0	0	0	0	0	0	0	0	60.5	0.0000	0.0000	0.0000	0.0000;
	14272	60.5	30.79	30.79	-6.72	1.0479	72.6	1	60.5	8.36	0	0	0	0	0	0	0	0	0	0	60.5	0.0000	0.0000	0.0000	0.0000;
	14273	60.5	30.79	30.79	-6.72	1.0461	72.6	1	60.5	17.58	0	0	0	0	0	0	0	0	0	0	60.5	0.0000	0.0000	0.0000	0.0000;
	14274	60.5	30.79	30.79	-6.72	1.0455	72.6	1	60.5	8.23	0	0	0	0	0	0	0	0	0	0	60.5	0.0000	0.0000	0.0000	0.0000;
	14275	37.14	18.9	18.9	-4.12	1.0482	44.57	1	37.14	13.94	0	0	0	0	0	0	0	0	0	0	37.14	0.0000	0.0000	0.0000	0.0000;
	14275	37.14	18.9	18.9	-4.12	1.0482	44.57	1	37.14	5.74	0	0	0	0	0	0	0	0	0	0	37.14	0.0000	0.0000	0.0000	0.0000;
	14276	37.14	18.9	18.9	-4.12	1.0457	44.57	1	37.14	4.39	0	0	0	0	0	0	0	0	0	0	37.14	0.0000	0.0000	0.0000	0.0000;
	14280	6	3.05	3.05	-0.67	1.04	7.2	1	6	0.64	0	0	0	0	0	0	0	0	0	0	6	0.0000	0.0000	0.0000	0.0000;
	14283	5.1	2.6	2.6	-0.57	1.04	6.12	1	5.1	1.02	0	0	0	0	0	0	0	0	0	0	5.1	0.0000	0.0000	0.0000	0.0000;
	14283	5.1	2.6	2.6	-0.57	1.04	6.12	1	5.1	1.44	0	0	0	0	0	0	0	0	0	0	5.1	0.0000	0.0000	0.0000	0.0000;
	14284	2.4	1.22	1.22	-0.27	1.04	2.88	1	2.4	0.5	0	0	0	0	0	0	0	0	0	0	2.4	0.0000	0.0000	0.0000	0.0000;
	14284	0	0	1.37	-0.3	1.04	3.24	0	2.7	0.97	0	0	0	0	0	0	0	0	0	0	2.7	0.0000	0.0000	0.0000	0.0000;
	14284	3	1.53	1.53	-0.33	1.04	3.6	1	3	0.87	0	0	0	0	0	0	0	0	0	0	3	0.0000	0.0000	0.0000	0.0000;
...
];

%% branch data
%	fbus	tbus	r	x	b	rateA	rateB	rateC	ratio	angle	status	angmin	angmax	Pf	Qf	Pt	Qt	mu_Sf	mu_St	mu_angmin	mu_angmax
mpc.branch = [
	11001	11004	0.010115	0.270509	0	110.37	0	0	1	0	1	0	0	4.7700	-8.0500	-4.7600	8.2800	0.0000	0.0000	0.0000	0.0000;
	11001	11005	0.000215	0.001126	0	0	0	0	0	0	1	0	0	53.2300	12.5900	-53.2200	-12.5600	0.0000	0.0000	0.0000	0.0000;
	11001	11006	0.000217	0.001008	0	0	0	0	0	0	1	0	0	-58.0000	-4.5400	58.0100	4.5800	0.0000	0.0000	0.0000	0.0000;
	11002	11004	-0.004531	-0.121176	0	60.37	0	0	1	0	1	0	0	-4.7700	8.1800	4.7600	-8.2800	0.0000	0.0000	0.0000	0.0000;
	11002	11454	0.050114	0.11071	0.01573	52.48	0	0	0	0	1	0	0	-10.6800	-4.0400	10.7400	2.5200	0.0000	0.0000	0.0000	0.0000;
	19072	11002	0.071823	0.15758	0.00617	53.14	0	0	0	0	1	0	0	-15.2800	3.8800	15.4500	-4.1400	0.0000	0.0000	0.0000	0.0000;
	11003	11004	0.02916	0.779851	0	50	0	0	1	0	1	0	0	0.0000	0.0000	0.0000	0.0000	0.0000	0.0000	0.0000	0.0000;
	11006	11039	0.010403	0.056167	0.02513	218.7	0	0	0	0	1	0	0	-58.0100	-4.5800	58.3500	3.8600	0.0000	0.0000	0.0000	0.0000;
	11007	11008	0.000223	0.001118	0	0	0	0	0	0	1	0	0	5.8900	1.4700	-5.8900	-1.4700	0.0000	0.0000	0.0000	0.0000;
	11007	11334	0.056116	0.124373	0.006	56.31	0	0	0	0	1	0	0	6.5600	0.2500	-6.5400	-0.8500	0.0000	0.0000	0.0000	0.0000;
	19212	11007	0.042489	0.099326	0.00552	61.22	0	0	0	0	1	0	0	12.5200	1.2600	-12.4600	-1.7200	0.0000	0.0000	0.0000	0.0000;
	11009	11010	0.000273	0.001168	0	0	0	0	0	0	1	0	0	-12.2900	-2.7700	12.2900	2.7700	0.0000	0.0000	0.0000	0.0000;
	11010	11305	0.059415	0.174267	0.00734	45.27	0	0	0	0	1	0	0	-4.3400	-0.1800	4.3500	-0.5700	0.0000	0.0000	0.0000	0.0000;
	11010	11334	0.037745	0.108973	0.00426	58.71	0	0	0	0	1	0	0	-7.9500	-2.5900	7.9700	2.2000	0.0000	0.0000	0.0000	0.0000;
	11011	11012	0.000231	0.001092	0	0	0	0	0	0	1	0	0	41.5200	5.1800	-41.5200	-5.1600	0.0000	0.0000	0.0000	0.0000;
	11011	11013	0.000205	0.001193	0	0	0	0	0	0	1	0	0	-41.5200	20.2400	41.5200	-20.2100	0.0000	0.0000	0.0000	0.0000;
	11011	11014	0.000253	0.001143	0	0	0	0	0	0	1	0	0	-0.0000	0.0000	0.0000	-0.0000	0.0000	0.0000	0.0000	0.0000;
	11011	11015	0.000249	0.001164	0	0	0	0	0	0	1	0	0	0.0000	0.0000	-0.0000	-0.0000	0.0000	0.0000	0.0000	0.0000;
	11013	11021	0.013892	0.03794	0.00151	47.34	0	0	0	0	1	0	0	2.7800	-11.5300	-2.7600	11.4200	0.0000	0.0000	0.0000	0.0000;
	11013	11054	0.028278	0.073529	0.00727	70.32	0	0	0	0	1	0	0	-35.0800	23.6500	35.5600	-23.1600	0.0000	0.0000	0.0000	0.0000;
	33230	11013	0.063132	0.165346	0.00369	53.61	0	0	0	0	1	0	0	9.3200	-8.2400	-9.2300	8.0900	0.0000	0.0000	0.0000	0.0000;
	11017	11016	0.003365	0.109641	0	93.3	0	0	1.04375	0	1	0	0	-47.6000	-14.2400	47.6800	17.0000	0.0000	0.0000	0.0000	0.0000;
	11016	11018	0.00026	0.001199	0	0	0	0	0	0	1	0	0	40.6200	10.9100	-40.6100	-10.8900	0.0000	0.0000	0.0000	0.0000;
	11053	11016	0.004374	0.027125	0.01133	214.87	0	0	0	0	1	0	0	-52.4300	2.3000	52.5500	-2.7100	0.0000	0.0000	0.0000	0.0000;
	11016	11175	0.006986	0.052736	0.02789	260.12	0	0	0	0	1	0	0	-140.8500	-25.2000	142.2500	32.8900	0.0000	0.0000	0.0000	0.0000;
	11017	11025	0.014564	0.035069	0.00354	72.84	0	0	0	0	1	0	0	42.3300	-4.3700	-42.0800	4.5900	0.0000	0.0000	0.0000	0.0000;
	11069	11017	0.033657	0.064458	0.0013	45.66	0	0	0	0	1	0	0	-5.1500	-18.5200	5.2700	18.6100	0.0000	0.0000	0.0000	0.0000;
	11019	11020	0.000248	0.001194	0	0	0	0	0	0	1	0	0	43.0900	31.8000	-43.0800	-31.7700	0.0000	0.0000	0.0000	0.0000;
	11019	11168	0.00974	0.064926	0.0686	223.55	0	0	0	0	1	0	0	-70.9400	-0.7300	71.4100	-3.2800	0.0000	0.0000	0.0000	0.0000;
	33351	11019	0.011245	0.078461	0.06179	188.44	0	0	0	0	1	0	0	-27.6800	25.7200	27.8500	-31.0800	0.0000	0.0000	0.0000	0.0000;
	11021	11022	0.000289	0.001125	0	0	0	0	0	0	1	0	0	32.5800	13.3600	-32.5800	-13.3500	0.0000	0.0000	0.0000	0.0000;
	11028	11021	0.014188	0.035442	0.00145	68.23	0	0	0	0	1	0	0	29.9300	-2.8100	-29.8100	2.9500	0.0000	0.0000	0.0000	0.0000;
	11023	11036	0.017927	0.040578	0.02138	63.77	0	0	0	0	1	0	0	16.1300	-30.6100	-15.9400	28.8000	0.0000	0.0000	0.0000	0.0000;
	11023	11054	0.013547	0.029109	0.00257	73.11	0	0	0	0	1	0	0	-45.5100	17.7300	45.8200	-17.3300	0.0000	0.0000	0.0000	0.0000;
	11023	11076	0.02258	0.054078	0.00228	66.9	0	0	0	0	1	0	0	-26.2400	13.4000	26.4300	-13.1800	0.0000	0.0000	0.0000	0.0000;
	11023	11408	0.02295	0.072607	0.00531	63.64	0	0	0	0	1	0	0	23.0400	-11.5600	-22.9000	11.4600	0.0000	0.0000	0.0000	0.0000;
	11024	11025	0.000204	0.00113	0	0	0	0	0	0	1	0	0	-42.6200	-6.8200	42.6200	6.8400	0.0000	0.0000	0.0000	0.0000;
	11024	11026	0.000232	0.00118	0	0	0	0	0	0	1	0	0	42.6200	6.8200	-42.6200	-6.8000	0.0000	0.0000	0.0000	0.0000;
	11025	11028	0.033203	0.070185	0.00473	48.6	0	0	0	0	1	0	0	-0.5500	-11.4300	0.5900	11.0100	0.0000	0.0000	0.0000	0.0000;
	11028	11027	0.004965	0.153503	0	93.48	0	0	1.025	0	1	0	0	-48.7000	-2.4200	48.8200	5.9900	0.0000	0.0000	0.0000	0.0000;
	11027	11029	0.000296	0.001065	0	0	0	0	0	0	1	0	0	50.0200	8.3800	-50.0100	-8.3600	0.0000	0.0000	0.0000	0.0000;
	11027	11031	0.002491	0.015975	0.01111	169.88	0	0	0	0	1	0	0	19.7400	-38.6400	-19.7000	37.7600	0.0000	0.0000	0.0000	0.0000;
	11081	11027	0.011539	0.062997	0.01082	147.95	0	0	0	0	1	0	0	9.2800	-20.3400	-9.2300	19.5200	0.0000	0.0000	0.0000	0.0000;
	11027	11168	0.006825	0.038746	0.05317	244.86	0	0	0	0	1	0	0	-109.3500	4.7500	110.1400	-5.8200	0.0000	0.0000	0.0000	0.0000;
	11028	11499	0.030259	0.074922	0.00497	58.68	0	0	0	0	1	0	0	18.1800	-5.7900	-18.0800	5.5100	0.0000	0.0000	0.0000	0.0000;
	11030	11033	0.000826	0.045262	0	530.85	0	0	1	0	1	0	0	141.8300	35.5500	-141.6700	-26.5000	0.0000	0.0000	0.0000	0.0000;
	11030	11034	0.000231	0.001109	0	0	0	0	0	0	1	0	0	-141.8300	-35.5500	141.8800	35.7700	0.0000	0.0000	0.0000	0.0000;
	11030	11035	0.000227	0.001043	0	0	0	0	0	0	1	0	0	0.0000	0.0000	-0.0000	0.0000	0.0000	0.0000	0.0000	0.0000;
	11031	11033	-0.000351	-0.01923	0	405.85	0	0	1	0	1	0	0	-141.7400	-30.3400	141.6700	26.5000	0.0000	0.0000	0.0000	0.0000;
	11052	11031	0.007656	0.033289	0.01922	215.44	0	0	0	0	1	0	0	-47.8000	-25.7300	48.0100	24.6800	0.0000	0.0000	0.0000	0.0000;
	33351	11031	0.005873	0.040635	0.03466	206.56	0	0	0	0	1	0	0	-54.4500	38.7000	54.7000	-40.6400	0.0000	0.0000	0.0000	0.0000;
	11032	11033	0.002008	0.109956	0	125	0	0	1	0	1	0	0	0.0000	0.0000	0.0000	0.0000	0.0000	0.0000	0.0000	0.0000;
	11178	11034	0.001046	0.012506	0.33891	1230.13	0	0	0	0	1	0	0	601.2300	-79.7600	-597.6400	86.6500	0.0000	0.0000	0.0000	0.0000;
	11034	33349	0.000719	0.007864	0.20393	1192.09	0	0	0	0	1	0	0	455.7600	-122.4200	-454.2800	116.6400	0.0000	0.0000	0.0000	0.0000;
	33273	11036	0.039632	0.099218	0.00589	55.62	0	0	0	0	1	0	0	20.8400	-6.4000	-20.6600	6.2200	0.0000	0.0000	0.0000	0.0000;
	33292	11036	0.018148	0.044558	0.00128	55.5	0	0	0	0	1	0	0	-13.7300	-2.9500	13.7700	2.9000	0.0000	0.0000	0.0000	0.0000;
	11037	11038	0.000205	0.001135	0	0	0	0	0	0	1	0	0	37.5600	16.0700	-37.5600	-16.0500	0.0000	0.0000	0.0000	0.0000;
	11037	11408	0.03603	0.085518	0.00547	57.82	0	0	0	0	1	0	0	-13.8000	17.4000	13.9700	-17.5700	0.0000	0.0000	0.0000	0.0000;
	11499	11037	0.024391	0.04971	0.00331	63.98	0	0	0	0	1	0	0	23.9100	-9.3100	-23.7600	9.2600	0.0000	0.0000	0.0000	0.0000;
	11039	11065	0.015162	0.067014	0.01975	220.12	0	0	0	0	1	0	0	-64.1100	-0.3600	64.7100	0.9600	0.0000	0.0000	0.0000	0.0000;
	11039	11162	0.012009	0.069413	0.01867	213.71	0	0	0	0	1	0	0	-42.7100	-8.6700	42.9300	7.9700	0.0000	0.0000	0.0000	0.0000;
	11040	11314	0.035009	0.078367	0.00955	68.35	0	0	0	0	1	0	0	-27.6900	-0.7500	27.9400	0.2900	0.0000	0.0000	0.0000	0.0000;
	11040	11499	0.018263	0.045782	0.00351	53.88	0	0	0	0	1	0	0	4.6400	-4.6100	-4.6300	4.2600	0.0000	0.0000	0.0000	0.0000;
	11041	11042	0.000243	0.001063	0	0	0	0	0	0	1	0	0	29.4600	2.6600	-29.4600	-2.6500	0.0000	0.0000	0.0000	0.0000;
	11041	11054	0.01704	0.039457	0.00153	56.79	0	0	0	0	1	0	0	-12.0800	-2.5700	12.1100	2.4700	0.0000	0.0000	0.0000	0.0000;
	11041	11069	0.021822	0.046081	0.00215	38.91	0	0	0	0	1	0	0	-2.7700	0.6600	2.7700	-0.8800	0.0000	0.0000	0.0000	0.0000;
	11041	11076	0.021925	0.047333	0.00494	57.15	0	0	0	0	1	0	0	-10.9100	3.2900	10.9300	-3.7500	0.0000	0.0000	0.0000	0.0000;
	11295	11041	0.01188	0.033105	0.0031	49.65	0	0	0	0	1	0	0	3.7100	3.7300	-3.7000	-4.0400	0.0000	0.0000	0.0000	0.0000;
	11043	11044	0.000233	0.001153	0	0	0	0	0	0	1	0	0	-15.0700	-3.2100	15.0700	3.2200	0.0000	0.0000	0.0000	0.0000;
	11043	11045	0.000217	0.00108	0	0	0	0	0	0	1	0	0	14.7000	3.1400	-14.7000	-3.1400	0.0000	0.0000	0.0000	0.0000;
	11043	11046	0.000209	0.001132	0	0	0	0	0	0	1	0	0	0.0000	-0.0000	-0.0000	0.0000	0.0000	0.0000	0.0000	0.0000;
	11150	11044	0.049758	0.137432	0.00703	59.66	0	0	0	0	1	0	0	18.2300	-3.9900	-18.0600	3.7500	0.0000	0.0000	0.0000	0.0000;
	11044	11312	0.051626	0.118622	0.00527	40.63	0	0	0	0	1	0	0	2.9900	-6.9700	-2.9600	6.4900	0.0000	0.0000	0.0000	0.0000;
	11048	11047	0.00611	0.178271	0	69.44	0	0	1.03125	0	1	0	0	-10.8000	-13.9900	10.8200	14.5300	0.0000	0.0000	0.0000	0.0000;
	11047	11049	0.000295	0.00105	0	0	0	0	0	0	1	0	0	-10.8200	-14.5300	10.8200	14.5300	0.0000	0.0000	0.0000	0.0000;
	11048	11388	0.016028	0.044469	0.02468	69.58	0	0	0	0	1	0	0	-33.4300	0.1000	33.6000	-2.3400	0.0000	0.0000	0.0000	0.0000;
	11048	11413	0.03409	0.086686	0.00305	57.78	0	0	0	0	1	0	0	-14.5400	0.7900	14.6100	-0.9500	0.0000	0.0000	0.0000	0.0000;
	11289	11049	0.004399	0.029082	0.05846	221.72	0	0	0	0	1	0	0	-69.8200	4.5200	70.0300	-9.4700	0.0000	0.0000	0.0000	0.0000;
	11049	11395	0.007719	0.047114	0.01822	229.13	0	0	0	0	1	0	0	-80.8400	-5.0600	81.3100	5.9500	0.0000	0.0000	0.0000	0.0000;
	11050	11051	0.000272	0.001074	0	0	0	0	0	0	1	0	0	50.2600	13.6500	-50.2600	-13.6200	0.0000	0.0000	0.0000	0.0000;
	11050	11314	0.010601	0.029526	0.00156	65.55	0	0	0	0	1	0	0	-25.4600	-7.7500	25.5300	7.7800	0.0000	0.0000	0.0000	0.0000;
	11388	11050	0.026244	0.056772	0.00232	64.91	0	0	0	0	1	0	0	24.9600	5.9900	-24.8100	-5.9000	0.0000	0.0000	0.0000	0.0000;
	11052	11053	0.007752	0.047314	0.01236	157.9	0	0	0	0	1	0	0	1.5700	13.3100	-1.5600	-14.4800	0.0000	0.0000	0.0000	0.0000;
	33071	11052	0.014122	0.062396	0.01665	179.3	0	0	0	0	1	0	0	-6.8200	-8.3500	6.8300	6.7200	0.0000	0.0000	0.0000	0.0000;
	11054	11053	0.006504	0.220316	0	70.14	0	0	1	0	1	0	0	-14.8000	7.8700	14.8200	-7.2800	0.0000	0.0000	0.0000	0.0000;
	11053	11055	0.000238	0.001023	0	0	0	0	0	0	1	0	0	39.1700	19.4500	-39.1700	-19.4300	0.0000	0.0000	0.0000	0.0000;
	11054	11066	0.010138	0.027755	0.00303	62.94	0	0	0	0	1	0	0	21.1700	-1.5300	-21.1300	1.3300	0.0000	0.0000	0.0000	0.0000;
	11054	11167	0.024781	0.079027	0.01086	82.55	0	0	0	0	1	0	0	-35.9100	10.7200	36.2500	-10.7800	0.0000	0.0000	0.0000	0.0000;
	11054	11167	0.024781	0.079027	0.01086	82.55	0	0	0	0	1	0	0	-35.9100	10.7200	36.2500	-10.7800	0.0000	0.0000	0.0000	0.0000;
	11054	11167	0.024781	0.079027	0.01086	82.55	0	0	0	0	1	0	0	-35.9100	10.7200	36.2500	-10.7800	0.0000	0.0000	0.0000	0.0000;
	11054	11295	0.01895	0.044741	0.00264	52.59	0	0	0	0	1	0	0	7.8600	-0.4900	-7.8500	0.2400	0.0000	0.0000	0.0000	0.0000;
	11070	11056	0.026366	0.078299	0.00245	52.62	0	0	0	0	1	0	0	-5.7800	1.0600	5.7900	-1.2800	0.0000	0.0000	0.0000	0.0000;
	11056	11312	0.020744	0.056228	0.00342	61.67	0	0	0	0	1	0	0	-16.6400	-0.1600	16.7000	-0.0300	0.0000	0.0000	0.0000	0.0000;
	11057	11058	0.000207	0.00107	0	0	0	0	0	0	1	0	0	20.9900	2.3100	-20.9900	-2.3100	0.0000	0.0000	0.0000	0.0000;
	11057	11059	0.000272	0.001188	0	0	0	0	0	0	1	0	0	-20.9900	19.7800	21.0000	-19.7700	0.0000	0.0000	0.0000	0.0000;
	11057	11060	0.000234	0.00112	0	0	0	0	0	0	1	0	0	-0.0000	-0.0000	0.0000	0.0000	0.0000	0.0000	0.0000	0.0000;
	11059	11066	0.030991	0.059245	0.0119	64.69	0	0	0	0	1	0	0	-24.3900	21.6800	24.7100	-22.3100	0.0000	0.0000	0.0000	0.0000;
	33292	11059	0.050557	0.142688	0.00536	50.35	0	0	0	0	1	0	0	-3.3900	1.3700	3.3900	-1.9100	0.0000	0.0000	0.0000	0.0000;
	11062	11061	0.000482	0.032206	0	403.41	0	0	1	0	1	0	0	-134.8600	-4.4600	134.9500	10.0100	0.0000	0.0000	0.0000	0.0000;
	11061	11064	0.000255	0.00118	0	0	0	0	0	0	1	0	0	54.5500	14.9200	-54.5400	-14.8800	0.0000	0.0000	0.0000	0.0000;
	11061	11158	0.000839	0.009639	0.32984	1060.69	0	0	0	0	1	0	0	172.3600	-13.7400	-172.1300	-18.5600	0.0000	0.0000	0.0000	0.0000;
	11426	11061	0.001274	0.016422	0.15202	1143.92	0	0	0	0	1	0	0	363.4200	15.1600	-361.8500	-11.1900	0.0000	0.0000	0.0000	0.0000;
	11063	11062	0.006615	0.198884	0	88.15	0	0	1	0	1	0	0	-29.7100	-0.8800	29.7700	2.5600	0.0000	0.0000	0.0000	0.0000;
	11062	11065	0.000236	0.001148	0	0	0	0	0	0	1	0	0	105.1000	1.9000	-105.0700	-1.7800	0.0000	0.0000	0.0000	0.0000;
	11063	11150	0.049582	0.137457	0.00335	68.94	0	0	0	0	1	0	0	29.7100	0.8800	-29.2900	-0.0600	0.0000	0.0000	0.0000	0.0000;
	11149	11065	0.00646	0.044195	0.01889	184.68	0	0	0	0	1	0	0	-0.0500	-2.4900	0.0500	0.4900	0.0000	0.0000	0.0000	0.0000;
	33071	11065	0.034455	0.197697	0.08962	207.14	0	0	0	0	1	0	0	-39.7700	-6.5200	40.3100	0.3300	0.0000	0.0000	0.0000	0.0000;
	11066	11067	0.000227	0.001127	0	0	0	0	0	0	1	0	0	26.3800	11.1300	-26.3800	-11.1300	0.0000	0.0000	0.0000	0.0000;
	11076	11066	0.017556	0.04232	0.0016	60.23	0	0	0	0	1	0	0	14.8800	-7.5600	-14.8300	7.5000	0.0000	0.0000	0.0000	0.0000;
	11066	11295	0.005158	0.01524	0.00089	60.01	0	0	0	0	1	0	0	-15.1300	2.3400	15.1400	-2.4000	0.0000	0.0000	0.0000	0.0000;
	11068	11069	0.000292	0.001165	0	0	0	0	0	0	1	0	0	-33.9100	-10.1000	33.9200	10.1100	0.0000	0.0000	0.0000	0.0000;
	11069	11328	0.033362	0.088688	0.00247	69.28	0	0	0	0	1	0	0	-31.5400	9.2900	31.8800	-8.6200	0.0000	0.0000	0.0000	0.0000;
	11070	11071	0.00022	0.001031	0	0	0	0	0	0	1	0	0	11.7200	3.7300	-11.7200	-3.7300	0.0000	0.0000	0.0000	0.0000;
	11070	11337	0.039905	0.095309	0.00393	50.23	0	0	0	0	1	0	0	-5.9400	-4.7900	5.9600	4.4500	0.0000	0.0000	0.0000	0.0000;
	11072	11073	0.000261	0.001129	0	0	0	0	0	0	1	0	0	-17.9600	-1.6100	17.9600	1.6100	0.0000	0.0000	0.0000	0.0000;
	11079	11073	0.03208	0.094687	0.00248	60.27	0	0	0	0	1	0	0	16.9800	10.2100	-16.8600	-10.1200	0.0000	0.0000	0.0000	0.0000;
	11073	11150	0.038973	0.091373	0.00487	56.16	0	0	0	0	1	0	0	14.9800	1.7900	-14.8900	-2.0900	0.0000	0.0000	0.0000	0.0000;
	11073	11214	0.030003	0.078563	0.00944	52.45	0	0	0	0	1	0	0	-9.4900	11.1700	9.5500	-11.9600	0.0000	0.0000	0.0000	0.0000;
	11073	11328	0.040244	0.096441	0.00809	51.84	0	0	0	0	1	0	0	-6.5900	-4.4500	6.6200	3.6700	0.0000	0.0000	0.0000	0.0000;
	11074	11075	0.000274	0.001156	0	0	0	0	0	0	1	0	0	56.6400	20.3800	-56.6300	-20.3400	0.0000	0.0000	0.0000	0.0000;
	33351	11074	0.040498	0.196119	0.05646	187.64	0	0	0	0	1	0	0	22.9700	-0.0100	-22.7700	-5.0100	0.0000	0.0000	0.0000	0.0000;
	33491	11074	0.019066	0.131937	0.07989	206.17	0	0	0	0	1	0	0	34.1000	8.4300	-33.8700	-15.3800	0.0000	0.0000	0.0000	0.0000;
	11076	11077	0.000215	0.001097	0	0	0	0	0	0	1	0	0	18.7800	2.8400	-18.7700	-2.8300	0.0000	0.0000	0.0000	0.0000;
	11076	11167	0.039116	0.081701	0.00722	79.57	0	0	0	0	1	0	0	-30.4900	11.3500	30.8900	-11.2600	0.0000	0.0000	0.0000	0.0000;
	11076	11167	0.039116	0.081701	0.00722	79.57	0	0	0	0	1	0	0	-30.4900	11.3500	30.8900	-11.2600	0.0000	0.0000	0.0000	0.0000;
	11076	11167	0.039116	0.081701	0.00722	79.57	0	0	0	0	1	0	0	-30.4900	11.3500	30.8900	-11.2600	0.0000	0.0000	0.0000	0.0000;
	11076	11295	0.007619	0.020808	0.00339	63.94	0	0	0	0	1	0	0	20.4500	-12.4000	-20.4100	12.1600	0.0000	0.0000	0.0000	0.0000;
	11079	11078	0.005757	0.132476	0	71.25	0	0	1.0375	0	1	0	0	-16.9800	-10.2100	17.0100	10.7400	0.0000	0.0000	0.0000	0.0000;
	11078	11080	0.000222	0.001036	0	0	0	0	0	0	1	0	0	46.8200	12.6200	-46.8100	-12.6000	0.0000	0.0000	0.0000	0.0000;
	11078	11081	0.000279	0.001011	0	0	0	0	0	0	1	0	0	-63.8200	-23.3600	63.8300	23.4100	0.0000	0.0000	0.0000	0.0000;
	11218	11081	0.006701	0.040696	0.02302	224.95	0	0	0	0	1	0	0	73.4700	2.8600	-73.1200	-3.0700	0.0000	0.0000	0.0000	0.0000;
	11082	11083	0.000218	0.001122	0	0	0	0	0	0	1	0	0	27.4300	4.4200	-27.4300	-4.4200	0.0000	0.0000	0.0000	0.0000;
	11082	11100	0.02825	0.066635	0.00179	62.64	0	0	0	0	1	0	0	23.2200	-4.8800	-23.0700	5.0500	0.0000	0.0000	0.0000	0.0000;
	11082	11141	0.023033	0.075214	0.01395	54.53	0	0	0	0	1	0	0	-11.1700	8.4800	11.2200	-9.7900	0.0000	0.0000	0.0000	0.0000;
	11082	11176	0.03465	0.059597	0.00217	65.12	0	0	0	0	1	0	0	-27.5900	-6.4400	27.8500	6.6600	0.0000	0.0000	0.0000	0.0000;
	11082	11300	0.020956	0.051946	0.00121	55.39	0	0	0	0	1	0	0	-11.8900	-1.5900	11.9200	1.5300	0.0000	0.0000	0.0000	0.0000;
	11090	11084	0.014224	0.042822	0.00214	59.32	0	0	0	0	1	0	0	16.2800	3.0100	-16.2400	-3.1200	0.0000	0.0000	0.0000	0.0000;
	11084	11098	0.022973	0.055587	0.00497	71.23	0	0	0	0	1	0	0	-37.6000	-7.5400	37.9300	7.8200	0.0000	0.0000	0.0000	0.0000;
	11190	11084	0.016333	0.039188	0.00246	51.97	0	0	0	0	1	0	0	-9.0800	6.6600	9.1000	-6.8700	0.0000	0.0000	0.0000	0.0000;
	11085	11088	0.001654	0.048183	0	121.27	0	0	1	0	1	0	0	52.0500	5.8100	-52.0100	-4.5600	0.0000	0.0000	0.0000	0.0000;
	11085	11089	0.00026	0.001066	0	0	0	0	0	0	1	0	0	-52.0500	-5.8100	52.0600	5.8400	0.0000	0.0000	0.0000	0.0000;
	11086	11088	0.003325	0.096862	0	96.27	0	0	1	0	1	0	0	-51.9200	-2.0500	52.0100	4.5600	0.0000	0.0000	0.0000	0.0000;
	11086	11090	0.014457	0.036504	0.00141	65.65	0	0	0	0	1	0	0	26.1800	5.9300	-26.0800	-5.8200	0.0000	0.0000	0.0000	0.0000;
	11086	11093	0.024201	0.059954	0.00266	67.35	0	0	0	0	1	0	0	-29.3400	-14.2300	29.5800	14.5500	0.0000	0.0000	0.0000	0.0000;
	11086	11098	0.010981	0.028501	0.00168	59.49	0	0	0	0	1	0	0	-16.1900	-5.7300	16.2200	5.6400	0.0000	0.0000	0.0000	0.0000;
	11190	11086	0.035444	0.073733	0.00299	64.09	0	0	0	0	1	0	0	-26.2900	1.4300	26.5300	-1.2400	0.0000	0.0000	0.0000	0.0000;
	11087	11088	0.024146	0.703496	0	25	0	0	1	0	1	0	0	0.0000	0.0000	0.0000	0.0000	0.0000	0.0000	0.0000	0.0000;
	11092	11089	0.003483	0.020791	0.00679	218.47	0	0	0	0	1	0	0	41.1200	33.4200	-41.0300	-33.6000	0.0000	0.0000	0.0000	0.0000;
	11146	11089	0.004601	0.021834	0.03793	217.77	0	0	0	0	1	0	0	83.3300	-26.3900	-83.0000	23.9500	0.0000	0.0000	0.0000	0.0000;
	11219	11089	0.00429	0.026192	0.00937	222.14	0	0	0	0	1	0	0	-71.7600	-3.5100	71.9700	3.8100	0.0000	0.0000	0.0000	0.0000;
	11098	11090	0.016198	0.040277	0.00222	70.01	0	0	0	0	1	0	0	35.2300	9.1600	-35.0300	-8.8800	0.0000	0.0000	0.0000	0.0000;
	11092	11091	0.000369	0.026015	0	569.75	0	0	1.025	0	1	0	0	-195.9700	-83.0200	196.1300	94.5400	0.0000	0.0000	0.0000	0.0000;
	11092	11091	0.000369	0.026015	0	569.75	0	0	1.025	0	1	0	0	-195.9700	-83.0200	196.1300	94.5400	0.0000	0.0000	0.0000	0.0000;
	11092	11091	0.000369	0.026015	0	569.75	0	0	1.025	0	1	0	0	-195.9700	-83.0200	196.1300	94.5400	0.0000	0.0000	0.0000	0.0000;
	11091	11178	0.000405	0.005522	0.12569	1277.72	0	0	0	0	1	0	0	550.3600	40.3300	-549.2100	-38.0000	0.0000	0.0000	0.0000	0.0000;
	11091	11178	0.000405	0.005522	0.12569	1277.72	0	0	0	0	1	0	0	550.3600	40.3300	-549.2100	-38.0000	0.0000	0.0000	0.0000	0.0000;
	11383	11091	0.001313	0.016112	0.33683	1325.42	0	0	0	0	1	0	0	709.6900	-14.5400	-703.5500	53.6000	0.0000	0.0000	0.0000	0.0000;
	11383	11091	0.001313	0.016112	0.33683	1325.42	0	0	0	0	1	0	0	709.6900	-14.5400	-703.5500	53.6000	0.0000	0.0000	0.0000	0.0000;
	11426	11091	0.000668	0.007929	0.19477	1137.08	0	0	0	0	1	0	0	282.5100	4.6100	-282.0200	-19.6300	0.0000	0.0000	0.0000	0.0000;
	11093	11092	0.004382	0.140267	0	105.14	0	0	1.0375	0	1	0	0	-49.2300	-24.2800	49.3600	28.5200	0.0000	0.0000	0.0000	0.0000;
	11093	11092	0.004382	0.140267	0	105.14	0	0	1.0375	0	1	0	0	-49.2300	-24.2800	49.3600	28.5200	0.0000	0.0000	0.0000	0.0000;
	11093	11092	0.004382	0.140267	0	105.14	0	0	1.0375	0	1	0	0	-49.2300	-24.2800	49.3600	28.5200	0.0000	0.0000	0.0000	0.0000;
	11093	11092	0.004382	0.140267	0	105.14	0	0	1.0375	0	1	0	0	-49.2300	-24.2800	49.3600	28.5200	0.0000	0.0000	0.0000	0.0000;
	11092	11094	0.000234	0.001092	0	0	0	0	0	0	1	0	0	51.9100	27.8900	-51.9100	-27.8500	0.0000	0.0000	0.0000	0.0000;
	11092	11101	0.002414	0.013749	0.00868	249.95	0	0	0	0	1	0	0	67.7100	11.9900	-67.6100	-12.3100	0.0000	0.0000	0.0000	0.0000;
	11106	11092	0.005572	0.033498	0.02185	188.52	0	0	0	0	1	0	0	8.6300	-33.1700	-8.5700	31.1900	0.0000	0.0000	0.0000	0.0000;
	11092	11168	0.008651	0.045886	0.02578	238.06	0	0	0	0	1	0	0	99.6200	9.2100	-98.8100	-7.6600	0.0000	0.0000	0.0000	0.0000;
	11092	11218	0.011705	0.037036	0.02738	254.61	0	0	0	0	1	0	0	138.6900	21.2900	-136.5400	-17.3600	0.0000	0.0000	0.0000	0.0000;
	11093	11097	0.023203	0.051844	0.00305	68.15	0	0	0	0	1	0	0	27.3800	16.2600	-27.1600	-16.0900	0.0000	0.0000	0.0000	0.0000;
...